
---------- Begin Simulation Statistics ----------
sim_seconds                                  1.865066                       # Number of seconds simulated
sim_ticks                                1865065963500                       # Number of ticks simulated
final_tick                               6665241171500                       # Number of ticks from beginning of simulation (restored from checkpoints and never reset)
sim_freq                                 1000000000000                       # Frequency of simulated ticks
host_inst_rate                                1218232                       # Simulator instruction rate (inst/s)
host_op_rate                                  2688446                       # Simulator op (including micro ops) rate (op/s)
host_tick_rate                             1507173285                       # Simulator tick rate (ticks/s)
host_mem_usage                                2312528                       # Number of bytes of host memory used
host_seconds                                  1237.46                       # Real time elapsed on the host
sim_insts                                  1507512924                       # Number of instructions simulated
sim_ops                                    3326842692                       # Number of ops (including micro ops) simulated
system.voltage_domain.voltage                       1                       # Voltage in Volts
system.clk_domain.clock                          1000                       # Clock period in ticks
system.mem_ctrls.pwrStateResidencyTicks::UNDEFINED 6665241171500                       # Cumulative time (in ticks) in various power states
system.mem_ctrls.bytes_read::switch_cpus0.inst           64                       # Number of bytes read from this memory
system.mem_ctrls.bytes_read::switch_cpus0.data           64                       # Number of bytes read from this memory
system.mem_ctrls.bytes_read::switch_cpus_10.inst        10560                       # Number of bytes read from this memory
system.mem_ctrls.bytes_read::switch_cpus_10.data        48192                       # Number of bytes read from this memory
system.mem_ctrls.bytes_read::switch_cpus_11.inst         7232                       # Number of bytes read from this memory
system.mem_ctrls.bytes_read::switch_cpus_11.data        46208                       # Number of bytes read from this memory
system.mem_ctrls.bytes_read::switch_cpus_12.inst         2112                       # Number of bytes read from this memory
system.mem_ctrls.bytes_read::switch_cpus_12.data        31296                       # Number of bytes read from this memory
system.mem_ctrls.bytes_read::switch_cpus_13.dtb.walker           64                       # Number of bytes read from this memory
system.mem_ctrls.bytes_read::switch_cpus_13.inst         1088                       # Number of bytes read from this memory
system.mem_ctrls.bytes_read::switch_cpus_13.data        14784                       # Number of bytes read from this memory
system.mem_ctrls.bytes_read::switch_cpus_14.inst          576                       # Number of bytes read from this memory
system.mem_ctrls.bytes_read::switch_cpus_14.data        22400                       # Number of bytes read from this memory
system.mem_ctrls.bytes_read::switch_cpus_15.inst          192                       # Number of bytes read from this memory
system.mem_ctrls.bytes_read::switch_cpus_15.data        19776                       # Number of bytes read from this memory
system.mem_ctrls.bytes_read::switch_cpus_16.inst          576                       # Number of bytes read from this memory
system.mem_ctrls.bytes_read::switch_cpus_16.data        21248                       # Number of bytes read from this memory
system.mem_ctrls.bytes_read::switch_cpus_17.inst         2880                       # Number of bytes read from this memory
system.mem_ctrls.bytes_read::switch_cpus_17.data        42432                       # Number of bytes read from this memory
system.mem_ctrls.bytes_read::total             271744                       # Number of bytes read from this memory
system.mem_ctrls.bytes_inst_read::switch_cpus0.inst           64                       # Number of instructions bytes read from this memory
system.mem_ctrls.bytes_inst_read::switch_cpus_10.inst        10560                       # Number of instructions bytes read from this memory
system.mem_ctrls.bytes_inst_read::switch_cpus_11.inst         7232                       # Number of instructions bytes read from this memory
system.mem_ctrls.bytes_inst_read::switch_cpus_12.inst         2112                       # Number of instructions bytes read from this memory
system.mem_ctrls.bytes_inst_read::switch_cpus_13.inst         1088                       # Number of instructions bytes read from this memory
system.mem_ctrls.bytes_inst_read::switch_cpus_14.inst          576                       # Number of instructions bytes read from this memory
system.mem_ctrls.bytes_inst_read::switch_cpus_15.inst          192                       # Number of instructions bytes read from this memory
system.mem_ctrls.bytes_inst_read::switch_cpus_16.inst          576                       # Number of instructions bytes read from this memory
system.mem_ctrls.bytes_inst_read::switch_cpus_17.inst         2880                       # Number of instructions bytes read from this memory
system.mem_ctrls.bytes_inst_read::total         25280                       # Number of instructions bytes read from this memory
system.mem_ctrls.bytes_written::writebacks       952256                       # Number of bytes written to this memory
system.mem_ctrls.bytes_written::total          952256                       # Number of bytes written to this memory
system.mem_ctrls.num_reads::switch_cpus0.inst            1                       # Number of read requests responded to by this memory
system.mem_ctrls.num_reads::switch_cpus0.data            1                       # Number of read requests responded to by this memory
system.mem_ctrls.num_reads::switch_cpus_10.inst          165                       # Number of read requests responded to by this memory
system.mem_ctrls.num_reads::switch_cpus_10.data          753                       # Number of read requests responded to by this memory
system.mem_ctrls.num_reads::switch_cpus_11.inst          113                       # Number of read requests responded to by this memory
system.mem_ctrls.num_reads::switch_cpus_11.data          722                       # Number of read requests responded to by this memory
system.mem_ctrls.num_reads::switch_cpus_12.inst           33                       # Number of read requests responded to by this memory
system.mem_ctrls.num_reads::switch_cpus_12.data          489                       # Number of read requests responded to by this memory
system.mem_ctrls.num_reads::switch_cpus_13.dtb.walker            1                       # Number of read requests responded to by this memory
system.mem_ctrls.num_reads::switch_cpus_13.inst           17                       # Number of read requests responded to by this memory
system.mem_ctrls.num_reads::switch_cpus_13.data          231                       # Number of read requests responded to by this memory
system.mem_ctrls.num_reads::switch_cpus_14.inst            9                       # Number of read requests responded to by this memory
system.mem_ctrls.num_reads::switch_cpus_14.data          350                       # Number of read requests responded to by this memory
system.mem_ctrls.num_reads::switch_cpus_15.inst            3                       # Number of read requests responded to by this memory
system.mem_ctrls.num_reads::switch_cpus_15.data          309                       # Number of read requests responded to by this memory
system.mem_ctrls.num_reads::switch_cpus_16.inst            9                       # Number of read requests responded to by this memory
system.mem_ctrls.num_reads::switch_cpus_16.data          332                       # Number of read requests responded to by this memory
system.mem_ctrls.num_reads::switch_cpus_17.inst           45                       # Number of read requests responded to by this memory
system.mem_ctrls.num_reads::switch_cpus_17.data          663                       # Number of read requests responded to by this memory
system.mem_ctrls.num_reads::total                4246                       # Number of read requests responded to by this memory
system.mem_ctrls.num_writes::writebacks         14879                       # Number of write requests responded to by this memory
system.mem_ctrls.num_writes::total              14879                       # Number of write requests responded to by this memory
system.mem_ctrls.bw_read::switch_cpus0.inst           34                       # Total read bandwidth from this memory (bytes/s)
system.mem_ctrls.bw_read::switch_cpus0.data           34                       # Total read bandwidth from this memory (bytes/s)
system.mem_ctrls.bw_read::switch_cpus_10.inst         5662                       # Total read bandwidth from this memory (bytes/s)
system.mem_ctrls.bw_read::switch_cpus_10.data        25839                       # Total read bandwidth from this memory (bytes/s)
system.mem_ctrls.bw_read::switch_cpus_11.inst         3878                       # Total read bandwidth from this memory (bytes/s)
system.mem_ctrls.bw_read::switch_cpus_11.data        24776                       # Total read bandwidth from this memory (bytes/s)
system.mem_ctrls.bw_read::switch_cpus_12.inst         1132                       # Total read bandwidth from this memory (bytes/s)
system.mem_ctrls.bw_read::switch_cpus_12.data        16780                       # Total read bandwidth from this memory (bytes/s)
system.mem_ctrls.bw_read::switch_cpus_13.dtb.walker           34                       # Total read bandwidth from this memory (bytes/s)
system.mem_ctrls.bw_read::switch_cpus_13.inst          583                       # Total read bandwidth from this memory (bytes/s)
system.mem_ctrls.bw_read::switch_cpus_13.data         7927                       # Total read bandwidth from this memory (bytes/s)
system.mem_ctrls.bw_read::switch_cpus_14.inst          309                       # Total read bandwidth from this memory (bytes/s)
system.mem_ctrls.bw_read::switch_cpus_14.data        12010                       # Total read bandwidth from this memory (bytes/s)
system.mem_ctrls.bw_read::switch_cpus_15.inst          103                       # Total read bandwidth from this memory (bytes/s)
system.mem_ctrls.bw_read::switch_cpus_15.data        10603                       # Total read bandwidth from this memory (bytes/s)
system.mem_ctrls.bw_read::switch_cpus_16.inst          309                       # Total read bandwidth from this memory (bytes/s)
system.mem_ctrls.bw_read::switch_cpus_16.data        11393                       # Total read bandwidth from this memory (bytes/s)
system.mem_ctrls.bw_read::switch_cpus_17.inst         1544                       # Total read bandwidth from this memory (bytes/s)
system.mem_ctrls.bw_read::switch_cpus_17.data        22751                       # Total read bandwidth from this memory (bytes/s)
system.mem_ctrls.bw_read::total                145702                       # Total read bandwidth from this memory (bytes/s)
system.mem_ctrls.bw_inst_read::switch_cpus0.inst           34                       # Instruction read bandwidth from this memory (bytes/s)
system.mem_ctrls.bw_inst_read::switch_cpus_10.inst         5662                       # Instruction read bandwidth from this memory (bytes/s)
system.mem_ctrls.bw_inst_read::switch_cpus_11.inst         3878                       # Instruction read bandwidth from this memory (bytes/s)
system.mem_ctrls.bw_inst_read::switch_cpus_12.inst         1132                       # Instruction read bandwidth from this memory (bytes/s)
system.mem_ctrls.bw_inst_read::switch_cpus_13.inst          583                       # Instruction read bandwidth from this memory (bytes/s)
system.mem_ctrls.bw_inst_read::switch_cpus_14.inst          309                       # Instruction read bandwidth from this memory (bytes/s)
system.mem_ctrls.bw_inst_read::switch_cpus_15.inst          103                       # Instruction read bandwidth from this memory (bytes/s)
system.mem_ctrls.bw_inst_read::switch_cpus_16.inst          309                       # Instruction read bandwidth from this memory (bytes/s)
system.mem_ctrls.bw_inst_read::switch_cpus_17.inst         1544                       # Instruction read bandwidth from this memory (bytes/s)
system.mem_ctrls.bw_inst_read::total            13554                       # Instruction read bandwidth from this memory (bytes/s)
system.mem_ctrls.bw_write::writebacks          510575                       # Write bandwidth from this memory (bytes/s)
system.mem_ctrls.bw_write::total               510575                       # Write bandwidth from this memory (bytes/s)
system.mem_ctrls.bw_total::writebacks          510575                       # Total bandwidth to/from this memory (bytes/s)
system.mem_ctrls.bw_total::switch_cpus0.inst           34                       # Total bandwidth to/from this memory (bytes/s)
system.mem_ctrls.bw_total::switch_cpus0.data           34                       # Total bandwidth to/from this memory (bytes/s)
system.mem_ctrls.bw_total::switch_cpus_10.inst         5662                       # Total bandwidth to/from this memory (bytes/s)
system.mem_ctrls.bw_total::switch_cpus_10.data        25839                       # Total bandwidth to/from this memory (bytes/s)
system.mem_ctrls.bw_total::switch_cpus_11.inst         3878                       # Total bandwidth to/from this memory (bytes/s)
system.mem_ctrls.bw_total::switch_cpus_11.data        24776                       # Total bandwidth to/from this memory (bytes/s)
system.mem_ctrls.bw_total::switch_cpus_12.inst         1132                       # Total bandwidth to/from this memory (bytes/s)
system.mem_ctrls.bw_total::switch_cpus_12.data        16780                       # Total bandwidth to/from this memory (bytes/s)
system.mem_ctrls.bw_total::switch_cpus_13.dtb.walker           34                       # Total bandwidth to/from this memory (bytes/s)
system.mem_ctrls.bw_total::switch_cpus_13.inst          583                       # Total bandwidth to/from this memory (bytes/s)
system.mem_ctrls.bw_total::switch_cpus_13.data         7927                       # Total bandwidth to/from this memory (bytes/s)
system.mem_ctrls.bw_total::switch_cpus_14.inst          309                       # Total bandwidth to/from this memory (bytes/s)
system.mem_ctrls.bw_total::switch_cpus_14.data        12010                       # Total bandwidth to/from this memory (bytes/s)
system.mem_ctrls.bw_total::switch_cpus_15.inst          103                       # Total bandwidth to/from this memory (bytes/s)
system.mem_ctrls.bw_total::switch_cpus_15.data        10603                       # Total bandwidth to/from this memory (bytes/s)
system.mem_ctrls.bw_total::switch_cpus_16.inst          309                       # Total bandwidth to/from this memory (bytes/s)
system.mem_ctrls.bw_total::switch_cpus_16.data        11393                       # Total bandwidth to/from this memory (bytes/s)
system.mem_ctrls.bw_total::switch_cpus_17.inst         1544                       # Total bandwidth to/from this memory (bytes/s)
system.mem_ctrls.bw_total::switch_cpus_17.data        22751                       # Total bandwidth to/from this memory (bytes/s)
system.mem_ctrls.bw_total::total               656277                       # Total bandwidth to/from this memory (bytes/s)
system.mem_ctrls.readReqs                        4244                       # Number of read requests accepted
system.mem_ctrls.writeReqs                      14877                       # Number of write requests accepted
system.mem_ctrls.readBursts                      4244                       # Number of DRAM read bursts, including those serviced by the write queue
system.mem_ctrls.writeBursts                    14877                       # Number of DRAM write bursts, including those merged in the write queue
system.mem_ctrls.bytesReadDRAM                 269376                       # Total number of bytes read from DRAM
system.mem_ctrls.bytesReadWrQ                    2240                       # Total number of bytes read from write queue
system.mem_ctrls.bytesWritten                  950144                       # Total number of bytes written to DRAM
system.mem_ctrls.bytesReadSys                  271616                       # Total read bytes from the system interface side
system.mem_ctrls.bytesWrittenSys               952128                       # Total written bytes from the system interface side
system.mem_ctrls.servicedByWrQ                     35                       # Number of DRAM read bursts serviced by the write queue
system.mem_ctrls.mergedWrBursts                     0                       # Number of DRAM write bursts merged with an existing one
system.mem_ctrls.neitherReadNorWriteReqs            0                       # Number of requests that are neither read nor write
system.mem_ctrls.perBankRdBursts::0               356                       # Per bank write bursts
system.mem_ctrls.perBankRdBursts::1               207                       # Per bank write bursts
system.mem_ctrls.perBankRdBursts::2               152                       # Per bank write bursts
system.mem_ctrls.perBankRdBursts::3               170                       # Per bank write bursts
system.mem_ctrls.perBankRdBursts::4               395                       # Per bank write bursts
system.mem_ctrls.perBankRdBursts::5               237                       # Per bank write bursts
system.mem_ctrls.perBankRdBursts::6               277                       # Per bank write bursts
system.mem_ctrls.perBankRdBursts::7               227                       # Per bank write bursts
system.mem_ctrls.perBankRdBursts::8               223                       # Per bank write bursts
system.mem_ctrls.perBankRdBursts::9               246                       # Per bank write bursts
system.mem_ctrls.perBankRdBursts::10              288                       # Per bank write bursts
system.mem_ctrls.perBankRdBursts::11              123                       # Per bank write bursts
system.mem_ctrls.perBankRdBursts::12              564                       # Per bank write bursts
system.mem_ctrls.perBankRdBursts::13              276                       # Per bank write bursts
system.mem_ctrls.perBankRdBursts::14              290                       # Per bank write bursts
system.mem_ctrls.perBankRdBursts::15              178                       # Per bank write bursts
system.mem_ctrls.perBankWrBursts::0               878                       # Per bank write bursts
system.mem_ctrls.perBankWrBursts::1               759                       # Per bank write bursts
system.mem_ctrls.perBankWrBursts::2               701                       # Per bank write bursts
system.mem_ctrls.perBankWrBursts::3               752                       # Per bank write bursts
system.mem_ctrls.perBankWrBursts::4              1063                       # Per bank write bursts
system.mem_ctrls.perBankWrBursts::5               960                       # Per bank write bursts
system.mem_ctrls.perBankWrBursts::6               786                       # Per bank write bursts
system.mem_ctrls.perBankWrBursts::7               783                       # Per bank write bursts
system.mem_ctrls.perBankWrBursts::8               960                       # Per bank write bursts
system.mem_ctrls.perBankWrBursts::9              1065                       # Per bank write bursts
system.mem_ctrls.perBankWrBursts::10              873                       # Per bank write bursts
system.mem_ctrls.perBankWrBursts::11              972                       # Per bank write bursts
system.mem_ctrls.perBankWrBursts::12             1233                       # Per bank write bursts
system.mem_ctrls.perBankWrBursts::13             1075                       # Per bank write bursts
system.mem_ctrls.perBankWrBursts::14             1166                       # Per bank write bursts
system.mem_ctrls.perBankWrBursts::15              820                       # Per bank write bursts
system.mem_ctrls.numRdRetry                         0                       # Number of times read queue was full causing retry
system.mem_ctrls.numWrRetry                        18                       # Number of times write queue was full causing retry
system.mem_ctrls.totGap                  1496685833500                       # Total gap between requests
system.mem_ctrls.readPktSize::0                     0                       # Read request sizes (log2)
system.mem_ctrls.readPktSize::1                     0                       # Read request sizes (log2)
system.mem_ctrls.readPktSize::2                     0                       # Read request sizes (log2)
system.mem_ctrls.readPktSize::3                     0                       # Read request sizes (log2)
system.mem_ctrls.readPktSize::4                     0                       # Read request sizes (log2)
system.mem_ctrls.readPktSize::5                     0                       # Read request sizes (log2)
system.mem_ctrls.readPktSize::6                  4244                       # Read request sizes (log2)
system.mem_ctrls.writePktSize::0                    0                       # Write request sizes (log2)
system.mem_ctrls.writePktSize::1                    0                       # Write request sizes (log2)
system.mem_ctrls.writePktSize::2                    0                       # Write request sizes (log2)
system.mem_ctrls.writePktSize::3                    0                       # Write request sizes (log2)
system.mem_ctrls.writePktSize::4                    0                       # Write request sizes (log2)
system.mem_ctrls.writePktSize::5                    0                       # Write request sizes (log2)
system.mem_ctrls.writePktSize::6                14877                       # Write request sizes (log2)
system.mem_ctrls.rdQLenPdf::0                    4166                       # What read queue length does an incoming req see
system.mem_ctrls.rdQLenPdf::1                      39                       # What read queue length does an incoming req see
system.mem_ctrls.rdQLenPdf::2                       3                       # What read queue length does an incoming req see
system.mem_ctrls.rdQLenPdf::3                       1                       # What read queue length does an incoming req see
system.mem_ctrls.rdQLenPdf::4                       0                       # What read queue length does an incoming req see
system.mem_ctrls.rdQLenPdf::5                       0                       # What read queue length does an incoming req see
system.mem_ctrls.rdQLenPdf::6                       0                       # What read queue length does an incoming req see
system.mem_ctrls.rdQLenPdf::7                       0                       # What read queue length does an incoming req see
system.mem_ctrls.rdQLenPdf::8                       0                       # What read queue length does an incoming req see
system.mem_ctrls.rdQLenPdf::9                       0                       # What read queue length does an incoming req see
system.mem_ctrls.rdQLenPdf::10                      0                       # What read queue length does an incoming req see
system.mem_ctrls.rdQLenPdf::11                      0                       # What read queue length does an incoming req see
system.mem_ctrls.rdQLenPdf::12                      0                       # What read queue length does an incoming req see
system.mem_ctrls.rdQLenPdf::13                      0                       # What read queue length does an incoming req see
system.mem_ctrls.rdQLenPdf::14                      0                       # What read queue length does an incoming req see
system.mem_ctrls.rdQLenPdf::15                      0                       # What read queue length does an incoming req see
system.mem_ctrls.rdQLenPdf::16                      0                       # What read queue length does an incoming req see
system.mem_ctrls.rdQLenPdf::17                      0                       # What read queue length does an incoming req see
system.mem_ctrls.rdQLenPdf::18                      0                       # What read queue length does an incoming req see
system.mem_ctrls.rdQLenPdf::19                      0                       # What read queue length does an incoming req see
system.mem_ctrls.rdQLenPdf::20                      0                       # What read queue length does an incoming req see
system.mem_ctrls.rdQLenPdf::21                      0                       # What read queue length does an incoming req see
system.mem_ctrls.rdQLenPdf::22                      0                       # What read queue length does an incoming req see
system.mem_ctrls.rdQLenPdf::23                      0                       # What read queue length does an incoming req see
system.mem_ctrls.rdQLenPdf::24                      0                       # What read queue length does an incoming req see
system.mem_ctrls.rdQLenPdf::25                      0                       # What read queue length does an incoming req see
system.mem_ctrls.rdQLenPdf::26                      0                       # What read queue length does an incoming req see
system.mem_ctrls.rdQLenPdf::27                      0                       # What read queue length does an incoming req see
system.mem_ctrls.rdQLenPdf::28                      0                       # What read queue length does an incoming req see
system.mem_ctrls.rdQLenPdf::29                      0                       # What read queue length does an incoming req see
system.mem_ctrls.rdQLenPdf::30                      0                       # What read queue length does an incoming req see
system.mem_ctrls.rdQLenPdf::31                      0                       # What read queue length does an incoming req see
system.mem_ctrls.wrQLenPdf::0                       1                       # What write queue length does an incoming req see
system.mem_ctrls.wrQLenPdf::1                       1                       # What write queue length does an incoming req see
system.mem_ctrls.wrQLenPdf::2                       1                       # What write queue length does an incoming req see
system.mem_ctrls.wrQLenPdf::3                       1                       # What write queue length does an incoming req see
system.mem_ctrls.wrQLenPdf::4                       1                       # What write queue length does an incoming req see
system.mem_ctrls.wrQLenPdf::5                       1                       # What write queue length does an incoming req see
system.mem_ctrls.wrQLenPdf::6                       1                       # What write queue length does an incoming req see
system.mem_ctrls.wrQLenPdf::7                       1                       # What write queue length does an incoming req see
system.mem_ctrls.wrQLenPdf::8                       1                       # What write queue length does an incoming req see
system.mem_ctrls.wrQLenPdf::9                       1                       # What write queue length does an incoming req see
system.mem_ctrls.wrQLenPdf::10                      1                       # What write queue length does an incoming req see
system.mem_ctrls.wrQLenPdf::11                      1                       # What write queue length does an incoming req see
system.mem_ctrls.wrQLenPdf::12                      1                       # What write queue length does an incoming req see
system.mem_ctrls.wrQLenPdf::13                      1                       # What write queue length does an incoming req see
system.mem_ctrls.wrQLenPdf::14                      1                       # What write queue length does an incoming req see
system.mem_ctrls.wrQLenPdf::15                    323                       # What write queue length does an incoming req see
system.mem_ctrls.wrQLenPdf::16                    658                       # What write queue length does an incoming req see
system.mem_ctrls.wrQLenPdf::17                    527                       # What write queue length does an incoming req see
system.mem_ctrls.wrQLenPdf::18                    510                       # What write queue length does an incoming req see
system.mem_ctrls.wrQLenPdf::19                    685                       # What write queue length does an incoming req see
system.mem_ctrls.wrQLenPdf::20                    574                       # What write queue length does an incoming req see
system.mem_ctrls.wrQLenPdf::21                    648                       # What write queue length does an incoming req see
system.mem_ctrls.wrQLenPdf::22                    700                       # What write queue length does an incoming req see
system.mem_ctrls.wrQLenPdf::23                   1040                       # What write queue length does an incoming req see
system.mem_ctrls.wrQLenPdf::24                    924                       # What write queue length does an incoming req see
system.mem_ctrls.wrQLenPdf::25                   1469                       # What write queue length does an incoming req see
system.mem_ctrls.wrQLenPdf::26                   1537                       # What write queue length does an incoming req see
system.mem_ctrls.wrQLenPdf::27                    914                       # What write queue length does an incoming req see
system.mem_ctrls.wrQLenPdf::28                    647                       # What write queue length does an incoming req see
system.mem_ctrls.wrQLenPdf::29                    661                       # What write queue length does an incoming req see
system.mem_ctrls.wrQLenPdf::30                    581                       # What write queue length does an incoming req see
system.mem_ctrls.wrQLenPdf::31                    502                       # What write queue length does an incoming req see
system.mem_ctrls.wrQLenPdf::32                    508                       # What write queue length does an incoming req see
system.mem_ctrls.wrQLenPdf::33                     78                       # What write queue length does an incoming req see
system.mem_ctrls.wrQLenPdf::34                     65                       # What write queue length does an incoming req see
system.mem_ctrls.wrQLenPdf::35                     89                       # What write queue length does an incoming req see
system.mem_ctrls.wrQLenPdf::36                     45                       # What write queue length does an incoming req see
system.mem_ctrls.wrQLenPdf::37                     36                       # What write queue length does an incoming req see
system.mem_ctrls.wrQLenPdf::38                     29                       # What write queue length does an incoming req see
system.mem_ctrls.wrQLenPdf::39                     44                       # What write queue length does an incoming req see
system.mem_ctrls.wrQLenPdf::40                     34                       # What write queue length does an incoming req see
system.mem_ctrls.wrQLenPdf::41                     38                       # What write queue length does an incoming req see
system.mem_ctrls.wrQLenPdf::42                     54                       # What write queue length does an incoming req see
system.mem_ctrls.wrQLenPdf::43                     43                       # What write queue length does an incoming req see
system.mem_ctrls.wrQLenPdf::44                     49                       # What write queue length does an incoming req see
system.mem_ctrls.wrQLenPdf::45                     55                       # What write queue length does an incoming req see
system.mem_ctrls.wrQLenPdf::46                     73                       # What write queue length does an incoming req see
system.mem_ctrls.wrQLenPdf::47                     57                       # What write queue length does an incoming req see
system.mem_ctrls.wrQLenPdf::48                     51                       # What write queue length does an incoming req see
system.mem_ctrls.wrQLenPdf::49                     72                       # What write queue length does an incoming req see
system.mem_ctrls.wrQLenPdf::50                     61                       # What write queue length does an incoming req see
system.mem_ctrls.wrQLenPdf::51                     34                       # What write queue length does an incoming req see
system.mem_ctrls.wrQLenPdf::52                     37                       # What write queue length does an incoming req see
system.mem_ctrls.wrQLenPdf::53                     28                       # What write queue length does an incoming req see
system.mem_ctrls.wrQLenPdf::54                     26                       # What write queue length does an incoming req see
system.mem_ctrls.wrQLenPdf::55                     29                       # What write queue length does an incoming req see
system.mem_ctrls.wrQLenPdf::56                     45                       # What write queue length does an incoming req see
system.mem_ctrls.wrQLenPdf::57                     44                       # What write queue length does an incoming req see
system.mem_ctrls.wrQLenPdf::58                     34                       # What write queue length does an incoming req see
system.mem_ctrls.wrQLenPdf::59                     59                       # What write queue length does an incoming req see
system.mem_ctrls.wrQLenPdf::60                     51                       # What write queue length does an incoming req see
system.mem_ctrls.wrQLenPdf::61                     24                       # What write queue length does an incoming req see
system.mem_ctrls.wrQLenPdf::62                     24                       # What write queue length does an incoming req see
system.mem_ctrls.wrQLenPdf::63                     46                       # What write queue length does an incoming req see
system.mem_ctrls.bytesPerActivate::samples         4569                       # Bytes accessed per row activation
system.mem_ctrls.bytesPerActivate::mean    266.911797                       # Bytes accessed per row activation
system.mem_ctrls.bytesPerActivate::gmean   131.287930                       # Bytes accessed per row activation
system.mem_ctrls.bytesPerActivate::stdev   361.746526                       # Bytes accessed per row activation
system.mem_ctrls.bytesPerActivate::0-127         2826     61.85%     61.85% # Bytes accessed per row activation
system.mem_ctrls.bytesPerActivate::128-255          636     13.92%     75.77% # Bytes accessed per row activation
system.mem_ctrls.bytesPerActivate::256-383          144      3.15%     78.92% # Bytes accessed per row activation
system.mem_ctrls.bytesPerActivate::384-511           75      1.64%     80.56% # Bytes accessed per row activation
system.mem_ctrls.bytesPerActivate::512-639           39      0.85%     81.42% # Bytes accessed per row activation
system.mem_ctrls.bytesPerActivate::640-767           27      0.59%     82.01% # Bytes accessed per row activation
system.mem_ctrls.bytesPerActivate::768-895           16      0.35%     82.36% # Bytes accessed per row activation
system.mem_ctrls.bytesPerActivate::896-1023           35      0.77%     83.13% # Bytes accessed per row activation
system.mem_ctrls.bytesPerActivate::1024-1151          771     16.87%    100.00% # Bytes accessed per row activation
system.mem_ctrls.bytesPerActivate::total         4569                       # Bytes accessed per row activation
system.mem_ctrls.rdPerTurnAround::samples          400                       # Reads before turning the bus around for writes
system.mem_ctrls.rdPerTurnAround::mean      10.450000                       # Reads before turning the bus around for writes
system.mem_ctrls.rdPerTurnAround::stdev     15.758277                       # Reads before turning the bus around for writes
system.mem_ctrls.rdPerTurnAround::0-3             245     61.25%     61.25% # Reads before turning the bus around for writes
system.mem_ctrls.rdPerTurnAround::4-7               4      1.00%     62.25% # Reads before turning the bus around for writes
system.mem_ctrls.rdPerTurnAround::8-11              5      1.25%     63.50% # Reads before turning the bus around for writes
system.mem_ctrls.rdPerTurnAround::12-15             9      2.25%     65.75% # Reads before turning the bus around for writes
system.mem_ctrls.rdPerTurnAround::16-19            18      4.50%     70.25% # Reads before turning the bus around for writes
system.mem_ctrls.rdPerTurnAround::20-23            31      7.75%     78.00% # Reads before turning the bus around for writes
system.mem_ctrls.rdPerTurnAround::24-27            31      7.75%     85.75% # Reads before turning the bus around for writes
system.mem_ctrls.rdPerTurnAround::28-31            19      4.75%     90.50% # Reads before turning the bus around for writes
system.mem_ctrls.rdPerTurnAround::32-35            14      3.50%     94.00% # Reads before turning the bus around for writes
system.mem_ctrls.rdPerTurnAround::36-39            10      2.50%     96.50% # Reads before turning the bus around for writes
system.mem_ctrls.rdPerTurnAround::40-43             5      1.25%     97.75% # Reads before turning the bus around for writes
system.mem_ctrls.rdPerTurnAround::44-47             2      0.50%     98.25% # Reads before turning the bus around for writes
system.mem_ctrls.rdPerTurnAround::48-51             1      0.25%     98.50% # Reads before turning the bus around for writes
system.mem_ctrls.rdPerTurnAround::52-55             2      0.50%     99.00% # Reads before turning the bus around for writes
system.mem_ctrls.rdPerTurnAround::64-67             1      0.25%     99.25% # Reads before turning the bus around for writes
system.mem_ctrls.rdPerTurnAround::72-75             1      0.25%     99.50% # Reads before turning the bus around for writes
system.mem_ctrls.rdPerTurnAround::104-107            1      0.25%     99.75% # Reads before turning the bus around for writes
system.mem_ctrls.rdPerTurnAround::116-119            1      0.25%    100.00% # Reads before turning the bus around for writes
system.mem_ctrls.rdPerTurnAround::total           400                       # Reads before turning the bus around for writes
system.mem_ctrls.wrPerTurnAround::samples          400                       # Writes before turning the bus around for reads
system.mem_ctrls.wrPerTurnAround::mean      37.115000                       # Writes before turning the bus around for reads
system.mem_ctrls.wrPerTurnAround::gmean     30.824339                       # Writes before turning the bus around for reads
system.mem_ctrls.wrPerTurnAround::stdev     26.386975                       # Writes before turning the bus around for reads
system.mem_ctrls.wrPerTurnAround::16-19           145     36.25%     36.25% # Writes before turning the bus around for reads
system.mem_ctrls.wrPerTurnAround::20-23            15      3.75%     40.00% # Writes before turning the bus around for reads
system.mem_ctrls.wrPerTurnAround::24-27             5      1.25%     41.25% # Writes before turning the bus around for reads
system.mem_ctrls.wrPerTurnAround::28-31            12      3.00%     44.25% # Writes before turning the bus around for reads
system.mem_ctrls.wrPerTurnAround::32-35           104     26.00%     70.25% # Writes before turning the bus around for reads
system.mem_ctrls.wrPerTurnAround::36-39             6      1.50%     71.75% # Writes before turning the bus around for reads
system.mem_ctrls.wrPerTurnAround::40-43            10      2.50%     74.25% # Writes before turning the bus around for reads
system.mem_ctrls.wrPerTurnAround::44-47             6      1.50%     75.75% # Writes before turning the bus around for reads
system.mem_ctrls.wrPerTurnAround::48-51             3      0.75%     76.50% # Writes before turning the bus around for reads
system.mem_ctrls.wrPerTurnAround::52-55             1      0.25%     76.75% # Writes before turning the bus around for reads
system.mem_ctrls.wrPerTurnAround::60-63             5      1.25%     78.00% # Writes before turning the bus around for reads
system.mem_ctrls.wrPerTurnAround::64-67            63     15.75%     93.75% # Writes before turning the bus around for reads
system.mem_ctrls.wrPerTurnAround::68-71             3      0.75%     94.50% # Writes before turning the bus around for reads
system.mem_ctrls.wrPerTurnAround::72-75             1      0.25%     94.75% # Writes before turning the bus around for reads
system.mem_ctrls.wrPerTurnAround::76-79             2      0.50%     95.25% # Writes before turning the bus around for reads
system.mem_ctrls.wrPerTurnAround::80-83             2      0.50%     95.75% # Writes before turning the bus around for reads
system.mem_ctrls.wrPerTurnAround::84-87             1      0.25%     96.00% # Writes before turning the bus around for reads
system.mem_ctrls.wrPerTurnAround::92-95             1      0.25%     96.25% # Writes before turning the bus around for reads
system.mem_ctrls.wrPerTurnAround::96-99             1      0.25%     96.50% # Writes before turning the bus around for reads
system.mem_ctrls.wrPerTurnAround::104-107            2      0.50%     97.00% # Writes before turning the bus around for reads
system.mem_ctrls.wrPerTurnAround::108-111            2      0.50%     97.50% # Writes before turning the bus around for reads
system.mem_ctrls.wrPerTurnAround::120-123            1      0.25%     97.75% # Writes before turning the bus around for reads
system.mem_ctrls.wrPerTurnAround::128-131            4      1.00%     98.75% # Writes before turning the bus around for reads
system.mem_ctrls.wrPerTurnAround::140-143            1      0.25%     99.00% # Writes before turning the bus around for reads
system.mem_ctrls.wrPerTurnAround::156-159            2      0.50%     99.50% # Writes before turning the bus around for reads
system.mem_ctrls.wrPerTurnAround::160-163            1      0.25%     99.75% # Writes before turning the bus around for reads
system.mem_ctrls.wrPerTurnAround::192-195            1      0.25%    100.00% # Writes before turning the bus around for reads
system.mem_ctrls.wrPerTurnAround::total           400                       # Writes before turning the bus around for reads
system.mem_ctrls.totQLat                    393908000                       # Total ticks spent queuing
system.mem_ctrls.totMemAccLat               472826750                       # Total ticks spent from burst creation until serviced by the DRAM
system.mem_ctrls.totBusLat                   21045000                       # Total ticks spent in databus transfers
system.mem_ctrls.avgQLat                     93587.08                       # Average queueing delay per DRAM burst
system.mem_ctrls.avgBusLat                    5000.00                       # Average bus latency per DRAM burst
system.mem_ctrls.avgMemAccLat               112337.08                       # Average memory access latency per DRAM burst
system.mem_ctrls.avgRdBW                         0.14                       # Average DRAM read bandwidth in MiByte/s
system.mem_ctrls.avgWrBW                         0.51                       # Average achieved write bandwidth in MiByte/s
system.mem_ctrls.avgRdBWSys                      0.15                       # Average system read bandwidth in MiByte/s
system.mem_ctrls.avgWrBWSys                      0.51                       # Average system write bandwidth in MiByte/s
system.mem_ctrls.peakBW                      12800.00                       # Theoretical peak bandwidth in MiByte/s
system.mem_ctrls.busUtil                         0.01                       # Data bus utilization in percentage
system.mem_ctrls.busUtilRead                     0.00                       # Data bus utilization in percentage for reads
system.mem_ctrls.busUtilWrite                    0.00                       # Data bus utilization in percentage for writes
system.mem_ctrls.avgRdQLen                       1.00                       # Average read queue length when enqueuing
system.mem_ctrls.avgWrQLen                      26.26                       # Average write queue length when enqueuing
system.mem_ctrls.readRowHits                     2095                       # Number of row buffer hits during reads
system.mem_ctrls.writeRowHits                   12391                       # Number of row buffer hits during writes
system.mem_ctrls.readRowHitRate                 49.77                       # Row buffer hit rate for reads
system.mem_ctrls.writeRowHitRate                83.29                       # Row buffer hit rate for writes
system.mem_ctrls.avgGap                   78274453.93                       # Average gap between requests
system.mem_ctrls.pageHitRate                    75.90                       # Row buffer hit rate, read and write combined
system.mem_ctrls_0.actEnergy                 15293880                       # Energy for activate commands per rank (pJ)
system.mem_ctrls_0.preEnergy                  8128890                       # Energy for precharge commands per rank (pJ)
system.mem_ctrls_0.readEnergy                14429940                       # Energy for read commands per rank (pJ)
system.mem_ctrls_0.writeEnergy               34880040                       # Energy for write commands per rank (pJ)
system.mem_ctrls_0.refreshEnergy         668113680.000000                       # Energy for refresh commands per rank (pJ)
system.mem_ctrls_0.actBackEnergy            310371840                       # Energy for active background per rank (pJ)
system.mem_ctrls_0.preBackEnergy             45621600                       # Energy for precharge background per rank (pJ)
system.mem_ctrls_0.actPowerDownEnergy      1205709600                       # Energy for active power-down per rank (pJ)
system.mem_ctrls_0.prePowerDownEnergy      1003308000                       # Energy for precharge power-down per rank (pJ)
system.mem_ctrls_0.selfRefreshEnergy     446338417380                       # Energy for self refresh per rank (pJ)
system.mem_ctrls_0.totalEnergy           449644282980                       # Total energy per rank (pJ)
system.mem_ctrls_0.averagePower            241.087603                       # Core power per rank (mW)
system.mem_ctrls_0.totalIdleTime         1213872590250                       # Total Idle time Per DRAM Rank
system.mem_ctrls_0.memoryStateTime::IDLE    101710250                       # Time in different power states
system.mem_ctrls_0.memoryStateTime::REF     284612000                       # Time in different power states
system.mem_ctrls_0.memoryStateTime::SREF 1858979499500                       # Time in different power states
system.mem_ctrls_0.memoryStateTime::PRE_PDN   2612829500                       # Time in different power states
system.mem_ctrls_0.memoryStateTime::ACT     420780250                       # Time in different power states
system.mem_ctrls_0.memoryStateTime::ACT_PDN   2644155000                       # Time in different power states
system.mem_ctrls_1.actEnergy                 17328780                       # Energy for activate commands per rank (pJ)
system.mem_ctrls_1.preEnergy                  9210465                       # Energy for precharge commands per rank (pJ)
system.mem_ctrls_1.readEnergy                15622320                       # Energy for read commands per rank (pJ)
system.mem_ctrls_1.writeEnergy               42616080                       # Energy for write commands per rank (pJ)
system.mem_ctrls_1.refreshEnergy         636767040.000000                       # Energy for refresh commands per rank (pJ)
system.mem_ctrls_1.actBackEnergy            306727260                       # Energy for active background per rank (pJ)
system.mem_ctrls_1.preBackEnergy             41420640                       # Energy for precharge background per rank (pJ)
system.mem_ctrls_1.actPowerDownEnergy      1166893740                       # Energy for active power-down per rank (pJ)
system.mem_ctrls_1.prePowerDownEnergy       956242560                       # Energy for precharge power-down per rank (pJ)
system.mem_ctrls_1.selfRefreshEnergy     446380995360                       # Energy for self refresh per rank (pJ)
system.mem_ctrls_1.totalEnergy           449573824245                       # Total energy per rank (pJ)
system.mem_ctrls_1.averagePower            241.049825                       # Core power per rank (mW)
system.mem_ctrls_1.totalIdleTime         1495921392500                       # Total Idle time Per DRAM Rank
system.mem_ctrls_1.memoryStateTime::IDLE     88172250                       # Time in different power states
system.mem_ctrls_1.memoryStateTime::REF     271214000                       # Time in different power states
system.mem_ctrls_1.memoryStateTime::SREF 1859209842500                       # Time in different power states
system.mem_ctrls_1.memoryStateTime::PRE_PDN   2490251750                       # Time in different power states
system.mem_ctrls_1.memoryStateTime::ACT     425239250                       # Time in different power states
system.mem_ctrls_1.memoryStateTime::ACT_PDN   2558866750                       # Time in different power states
system.pwrStateResidencyTicks::UNDEFINED 6665241171500                       # Cumulative time (in ticks) in various power states
system.apicbridge.pwrStateResidencyTicks::UNDEFINED 6665241171500                       # Cumulative time (in ticks) in various power states
system.bridge.pwrStateResidencyTicks::UNDEFINED 6665241171500                       # Cumulative time (in ticks) in various power states
system.cpu_voltage_domain.voltage                   1                       # Voltage in Volts
system.cpu_clk_domain.clock                       500                       # Clock period in ticks
system.cpu0.dtb.walker.pwrStateResidencyTicks::UNDEFINED 6665241171500                       # Cumulative time (in ticks) in various power states
system.cpu0.dtb.rdAccesses                          0                       # TLB accesses on read requests
system.cpu0.dtb.wrAccesses                          0                       # TLB accesses on write requests
system.cpu0.dtb.rdMisses                            0                       # TLB misses on read requests
system.cpu0.dtb.wrMisses                            0                       # TLB misses on write requests
system.cpu0.apic_clk_domain.clock                8000                       # Clock period in ticks
system.cpu0.interrupts.pwrStateResidencyTicks::UNDEFINED 6665241171500                       # Cumulative time (in ticks) in various power states
system.cpu0.itb.walker.pwrStateResidencyTicks::UNDEFINED 6665241171500                       # Cumulative time (in ticks) in various power states
system.cpu0.itb.rdAccesses                          0                       # TLB accesses on read requests
system.cpu0.itb.wrAccesses                          0                       # TLB accesses on write requests
system.cpu0.itb.rdMisses                            0                       # TLB misses on read requests
system.cpu0.itb.wrMisses                            0                       # TLB misses on write requests
system.cpu0.pwrStateResidencyTicks::OFF  6665241169500                       # Cumulative time (in ticks) in various power states
system.cpu0.numCycles                               0                       # number of cpu cycles simulated
system.cpu0.numWorkItemsStarted                     0                       # number of work items this cpu started
system.cpu0.numWorkItemsCompleted                   0                       # number of work items this cpu completed
system.cpu0.kern.inst.arm                           0                       # number of arm instructions executed
system.cpu0.kern.inst.quiesce                       0                       # number of quiesce instructions executed
system.cpu0.committedInsts                          0                       # Number of instructions committed
system.cpu0.committedOps                            0                       # Number of ops (including micro ops) committed
system.cpu0.num_int_alu_accesses                    0                       # Number of integer alu accesses
system.cpu0.num_fp_alu_accesses                     0                       # Number of float alu accesses
system.cpu0.num_vec_alu_accesses                    0                       # Number of vector alu accesses
system.cpu0.num_func_calls                          0                       # number of times a function call or return occured
system.cpu0.num_conditional_control_insts            0                       # number of instructions that are conditional controls
system.cpu0.num_int_insts                           0                       # number of integer instructions
system.cpu0.num_fp_insts                            0                       # number of float instructions
system.cpu0.num_vec_insts                           0                       # number of vector instructions
system.cpu0.num_int_register_reads                  0                       # number of times the integer registers were read
system.cpu0.num_int_register_writes                 0                       # number of times the integer registers were written
system.cpu0.num_fp_register_reads                   0                       # number of times the floating registers were read
system.cpu0.num_fp_register_writes                  0                       # number of times the floating registers were written
system.cpu0.num_vec_register_reads                  0                       # number of times the vector registers were read
system.cpu0.num_vec_register_writes                 0                       # number of times the vector registers were written
system.cpu0.num_mem_refs                            0                       # number of memory refs
system.cpu0.num_load_insts                          0                       # Number of load instructions
system.cpu0.num_store_insts                         0                       # Number of store instructions
system.cpu0.num_idle_cycles                         0                       # Number of idle cycles
system.cpu0.num_busy_cycles                         0                       # Number of busy cycles
system.cpu0.not_idle_fraction                       1                       # Percentage of non-idle cycles
system.cpu0.idle_fraction                           0                       # Percentage of idle cycles
system.cpu0.op_class::No_OpClass                    0                       # Class of executed instruction
system.cpu0.op_class::IntAlu                        0                       # Class of executed instruction
system.cpu0.op_class::IntMult                       0                       # Class of executed instruction
system.cpu0.op_class::IntDiv                        0                       # Class of executed instruction
system.cpu0.op_class::FloatAdd                      0                       # Class of executed instruction
system.cpu0.op_class::FloatCmp                      0                       # Class of executed instruction
system.cpu0.op_class::FloatCvt                      0                       # Class of executed instruction
system.cpu0.op_class::FloatMult                     0                       # Class of executed instruction
system.cpu0.op_class::FloatMultAcc                  0                       # Class of executed instruction
system.cpu0.op_class::FloatDiv                      0                       # Class of executed instruction
system.cpu0.op_class::FloatMisc                     0                       # Class of executed instruction
system.cpu0.op_class::FloatSqrt                     0                       # Class of executed instruction
system.cpu0.op_class::SimdAdd                       0                       # Class of executed instruction
system.cpu0.op_class::SimdAddAcc                    0                       # Class of executed instruction
system.cpu0.op_class::SimdAlu                       0                       # Class of executed instruction
system.cpu0.op_class::SimdCmp                       0                       # Class of executed instruction
system.cpu0.op_class::SimdCvt                       0                       # Class of executed instruction
system.cpu0.op_class::SimdMisc                      0                       # Class of executed instruction
system.cpu0.op_class::SimdMult                      0                       # Class of executed instruction
system.cpu0.op_class::SimdMultAcc                   0                       # Class of executed instruction
system.cpu0.op_class::SimdShift                     0                       # Class of executed instruction
system.cpu0.op_class::SimdShiftAcc                  0                       # Class of executed instruction
system.cpu0.op_class::SimdSqrt                      0                       # Class of executed instruction
system.cpu0.op_class::SimdFloatAdd                  0                       # Class of executed instruction
system.cpu0.op_class::SimdFloatAlu                  0                       # Class of executed instruction
system.cpu0.op_class::SimdFloatCmp                  0                       # Class of executed instruction
system.cpu0.op_class::SimdFloatCvt                  0                       # Class of executed instruction
system.cpu0.op_class::SimdFloatDiv                  0                       # Class of executed instruction
system.cpu0.op_class::SimdFloatMisc                 0                       # Class of executed instruction
system.cpu0.op_class::SimdFloatMult                 0                       # Class of executed instruction
system.cpu0.op_class::SimdFloatMultAcc              0                       # Class of executed instruction
system.cpu0.op_class::SimdFloatSqrt                 0                       # Class of executed instruction
system.cpu0.op_class::MemRead                       0                       # Class of executed instruction
system.cpu0.op_class::MemWrite                      0                       # Class of executed instruction
system.cpu0.op_class::FloatMemRead                  0                       # Class of executed instruction
system.cpu0.op_class::FloatMemWrite                 0                       # Class of executed instruction
system.cpu0.op_class::IprAccess                     0                       # Class of executed instruction
system.cpu0.op_class::InstPrefetch                  0                       # Class of executed instruction
system.cpu0.op_class::total                         0                       # Class of executed instruction
system.cpu0.dcache.tags.pwrStateResidencyTicks::UNDEFINED 6665241171500                       # Cumulative time (in ticks) in various power states
system.cpu0.dcache.tags.replacements            17938                       # number of replacements
system.cpu0.dcache.tags.tagsinuse          942.002111                       # Cycle average of tags in use
system.cpu0.dcache.tags.total_refs            1065924                       # Total number of references to valid blocks.
system.cpu0.dcache.tags.sampled_refs            18930                       # Sample count of references to valid blocks.
system.cpu0.dcache.tags.avg_refs            56.308716                       # Average number of references to valid blocks.
system.cpu0.dcache.tags.warmup_cycle                0                       # Cycle when the warmup percentage was hit.
system.cpu0.dcache.tags.occ_blocks::switch_cpus0.data    20.214318                       # Average occupied blocks per requestor
system.cpu0.dcache.tags.occ_blocks::switch_cpus_10.data   921.787793                       # Average occupied blocks per requestor
system.cpu0.dcache.tags.occ_percent::switch_cpus0.data     0.019741                       # Average percentage of cache occupancy
system.cpu0.dcache.tags.occ_percent::switch_cpus_10.data     0.900183                       # Average percentage of cache occupancy
system.cpu0.dcache.tags.occ_percent::total     0.919924                       # Average percentage of cache occupancy
system.cpu0.dcache.tags.occ_task_id_blocks::1024          992                       # Occupied blocks per task id
system.cpu0.dcache.tags.age_task_id_blocks_1024::3            9                       # Occupied blocks per task id
system.cpu0.dcache.tags.age_task_id_blocks_1024::4          983                       # Occupied blocks per task id
system.cpu0.dcache.tags.occ_task_id_percent::1024     0.968750                       # Percentage of cache occupancy per task id
system.cpu0.dcache.tags.tag_accesses          2231203                       # Number of tag accesses
system.cpu0.dcache.tags.data_accesses         2231203                       # Number of data accesses
system.cpu0.dcache.pwrStateResidencyTicks::UNDEFINED 6665241171500                       # Cumulative time (in ticks) in various power states
system.cpu0.dcache.ReadReq_hits::switch_cpus0.data         5356                       # number of ReadReq hits
system.cpu0.dcache.ReadReq_hits::switch_cpus_10.data       656974                       # number of ReadReq hits
system.cpu0.dcache.ReadReq_hits::total         662330                       # number of ReadReq hits
system.cpu0.dcache.WriteReq_hits::switch_cpus0.data         2913                       # number of WriteReq hits
system.cpu0.dcache.WriteReq_hits::switch_cpus_10.data       410761                       # number of WriteReq hits
system.cpu0.dcache.WriteReq_hits::total        413674                       # number of WriteReq hits
system.cpu0.dcache.SoftPFReq_hits::switch_cpus0.data            6                       # number of SoftPFReq hits
system.cpu0.dcache.SoftPFReq_hits::switch_cpus_10.data           78                       # number of SoftPFReq hits
system.cpu0.dcache.SoftPFReq_hits::total           84                       # number of SoftPFReq hits
system.cpu0.dcache.demand_hits::switch_cpus0.data         8269                       # number of demand (read+write) hits
system.cpu0.dcache.demand_hits::switch_cpus_10.data      1067735                       # number of demand (read+write) hits
system.cpu0.dcache.demand_hits::total         1076004                       # number of demand (read+write) hits
system.cpu0.dcache.overall_hits::switch_cpus0.data         8275                       # number of overall hits
system.cpu0.dcache.overall_hits::switch_cpus_10.data      1067813                       # number of overall hits
system.cpu0.dcache.overall_hits::total        1076088                       # number of overall hits
system.cpu0.dcache.ReadReq_misses::switch_cpus0.data           66                       # number of ReadReq misses
system.cpu0.dcache.ReadReq_misses::switch_cpus_10.data        20075                       # number of ReadReq misses
system.cpu0.dcache.ReadReq_misses::total        20141                       # number of ReadReq misses
system.cpu0.dcache.WriteReq_misses::switch_cpus0.data           58                       # number of WriteReq misses
system.cpu0.dcache.WriteReq_misses::switch_cpus_10.data         7211                       # number of WriteReq misses
system.cpu0.dcache.WriteReq_misses::total         7269                       # number of WriteReq misses
system.cpu0.dcache.SoftPFReq_misses::switch_cpus_10.data          437                       # number of SoftPFReq misses
system.cpu0.dcache.SoftPFReq_misses::total          437                       # number of SoftPFReq misses
system.cpu0.dcache.demand_misses::switch_cpus0.data          124                       # number of demand (read+write) misses
system.cpu0.dcache.demand_misses::switch_cpus_10.data        27286                       # number of demand (read+write) misses
system.cpu0.dcache.demand_misses::total         27410                       # number of demand (read+write) misses
system.cpu0.dcache.overall_misses::switch_cpus0.data          124                       # number of overall misses
system.cpu0.dcache.overall_misses::switch_cpus_10.data        27723                       # number of overall misses
system.cpu0.dcache.overall_misses::total        27847                       # number of overall misses
system.cpu0.dcache.ReadReq_miss_latency::switch_cpus_10.data    230611500                       # number of ReadReq miss cycles
system.cpu0.dcache.ReadReq_miss_latency::total    230611500                       # number of ReadReq miss cycles
system.cpu0.dcache.WriteReq_miss_latency::switch_cpus_10.data    119600000                       # number of WriteReq miss cycles
system.cpu0.dcache.WriteReq_miss_latency::total    119600000                       # number of WriteReq miss cycles
system.cpu0.dcache.demand_miss_latency::switch_cpus_10.data    350211500                       # number of demand (read+write) miss cycles
system.cpu0.dcache.demand_miss_latency::total    350211500                       # number of demand (read+write) miss cycles
system.cpu0.dcache.overall_miss_latency::switch_cpus_10.data    350211500                       # number of overall miss cycles
system.cpu0.dcache.overall_miss_latency::total    350211500                       # number of overall miss cycles
system.cpu0.dcache.ReadReq_accesses::switch_cpus0.data         5422                       # number of ReadReq accesses(hits+misses)
system.cpu0.dcache.ReadReq_accesses::switch_cpus_10.data       677049                       # number of ReadReq accesses(hits+misses)
system.cpu0.dcache.ReadReq_accesses::total       682471                       # number of ReadReq accesses(hits+misses)
system.cpu0.dcache.WriteReq_accesses::switch_cpus0.data         2971                       # number of WriteReq accesses(hits+misses)
system.cpu0.dcache.WriteReq_accesses::switch_cpus_10.data       417972                       # number of WriteReq accesses(hits+misses)
system.cpu0.dcache.WriteReq_accesses::total       420943                       # number of WriteReq accesses(hits+misses)
system.cpu0.dcache.SoftPFReq_accesses::switch_cpus0.data            6                       # number of SoftPFReq accesses(hits+misses)
system.cpu0.dcache.SoftPFReq_accesses::switch_cpus_10.data          515                       # number of SoftPFReq accesses(hits+misses)
system.cpu0.dcache.SoftPFReq_accesses::total          521                       # number of SoftPFReq accesses(hits+misses)
system.cpu0.dcache.demand_accesses::switch_cpus0.data         8393                       # number of demand (read+write) accesses
system.cpu0.dcache.demand_accesses::switch_cpus_10.data      1095021                       # number of demand (read+write) accesses
system.cpu0.dcache.demand_accesses::total      1103414                       # number of demand (read+write) accesses
system.cpu0.dcache.overall_accesses::switch_cpus0.data         8399                       # number of overall (read+write) accesses
system.cpu0.dcache.overall_accesses::switch_cpus_10.data      1095536                       # number of overall (read+write) accesses
system.cpu0.dcache.overall_accesses::total      1103935                       # number of overall (read+write) accesses
system.cpu0.dcache.ReadReq_miss_rate::switch_cpus0.data     0.012173                       # miss rate for ReadReq accesses
system.cpu0.dcache.ReadReq_miss_rate::switch_cpus_10.data     0.029651                       # miss rate for ReadReq accesses
system.cpu0.dcache.ReadReq_miss_rate::total     0.029512                       # miss rate for ReadReq accesses
system.cpu0.dcache.WriteReq_miss_rate::switch_cpus0.data     0.019522                       # miss rate for WriteReq accesses
system.cpu0.dcache.WriteReq_miss_rate::switch_cpus_10.data     0.017252                       # miss rate for WriteReq accesses
system.cpu0.dcache.WriteReq_miss_rate::total     0.017268                       # miss rate for WriteReq accesses
system.cpu0.dcache.SoftPFReq_miss_rate::switch_cpus_10.data     0.848544                       # miss rate for SoftPFReq accesses
system.cpu0.dcache.SoftPFReq_miss_rate::total     0.838772                       # miss rate for SoftPFReq accesses
system.cpu0.dcache.demand_miss_rate::switch_cpus0.data     0.014774                       # miss rate for demand accesses
system.cpu0.dcache.demand_miss_rate::switch_cpus_10.data     0.024918                       # miss rate for demand accesses
system.cpu0.dcache.demand_miss_rate::total     0.024841                       # miss rate for demand accesses
system.cpu0.dcache.overall_miss_rate::switch_cpus0.data     0.014764                       # miss rate for overall accesses
system.cpu0.dcache.overall_miss_rate::switch_cpus_10.data     0.025305                       # miss rate for overall accesses
system.cpu0.dcache.overall_miss_rate::total     0.025225                       # miss rate for overall accesses
system.cpu0.dcache.ReadReq_avg_miss_latency::switch_cpus_10.data 11487.496887                       # average ReadReq miss latency
system.cpu0.dcache.ReadReq_avg_miss_latency::total 11449.853533                       # average ReadReq miss latency
system.cpu0.dcache.WriteReq_avg_miss_latency::switch_cpus_10.data 16585.771738                       # average WriteReq miss latency
system.cpu0.dcache.WriteReq_avg_miss_latency::total 16453.432384                       # average WriteReq miss latency
system.cpu0.dcache.demand_avg_miss_latency::switch_cpus_10.data 12834.842044                       # average overall miss latency
system.cpu0.dcache.demand_avg_miss_latency::total 12776.778548                       # average overall miss latency
system.cpu0.dcache.overall_avg_miss_latency::switch_cpus_10.data 12632.525340                       # average overall miss latency
system.cpu0.dcache.overall_avg_miss_latency::total 12576.273925                       # average overall miss latency
system.cpu0.dcache.blocked_cycles::no_mshrs            0                       # number of cycles access was blocked
system.cpu0.dcache.blocked_cycles::no_targets            0                       # number of cycles access was blocked
system.cpu0.dcache.blocked::no_mshrs                0                       # number of cycles access was blocked
system.cpu0.dcache.blocked::no_targets              0                       # number of cycles access was blocked
system.cpu0.dcache.avg_blocked_cycles::no_mshrs          nan                       # average number of cycles each access was blocked
system.cpu0.dcache.avg_blocked_cycles::no_targets          nan                       # average number of cycles each access was blocked
system.cpu0.dcache.writebacks::writebacks         7346                       # number of writebacks
system.cpu0.dcache.writebacks::total             7346                       # number of writebacks
system.cpu0.dcache.WriteReq_mshr_hits::switch_cpus_10.data            5                       # number of WriteReq MSHR hits
system.cpu0.dcache.WriteReq_mshr_hits::total            5                       # number of WriteReq MSHR hits
system.cpu0.dcache.demand_mshr_hits::switch_cpus_10.data            5                       # number of demand (read+write) MSHR hits
system.cpu0.dcache.demand_mshr_hits::total            5                       # number of demand (read+write) MSHR hits
system.cpu0.dcache.overall_mshr_hits::switch_cpus_10.data            5                       # number of overall MSHR hits
system.cpu0.dcache.overall_mshr_hits::total            5                       # number of overall MSHR hits
system.cpu0.dcache.ReadReq_mshr_misses::switch_cpus_10.data        20075                       # number of ReadReq MSHR misses
system.cpu0.dcache.ReadReq_mshr_misses::total        20075                       # number of ReadReq MSHR misses
system.cpu0.dcache.WriteReq_mshr_misses::switch_cpus_10.data         7206                       # number of WriteReq MSHR misses
system.cpu0.dcache.WriteReq_mshr_misses::total         7206                       # number of WriteReq MSHR misses
system.cpu0.dcache.SoftPFReq_mshr_misses::switch_cpus_10.data          437                       # number of SoftPFReq MSHR misses
system.cpu0.dcache.SoftPFReq_mshr_misses::total          437                       # number of SoftPFReq MSHR misses
system.cpu0.dcache.demand_mshr_misses::switch_cpus_10.data        27281                       # number of demand (read+write) MSHR misses
system.cpu0.dcache.demand_mshr_misses::total        27281                       # number of demand (read+write) MSHR misses
system.cpu0.dcache.overall_mshr_misses::switch_cpus_10.data        27718                       # number of overall MSHR misses
system.cpu0.dcache.overall_mshr_misses::total        27718                       # number of overall MSHR misses
system.cpu0.dcache.ReadReq_mshr_uncacheable::switch_cpus_10.data           22                       # number of ReadReq MSHR uncacheable
system.cpu0.dcache.ReadReq_mshr_uncacheable::total           22                       # number of ReadReq MSHR uncacheable
system.cpu0.dcache.WriteReq_mshr_uncacheable::switch_cpus_10.data          516                       # number of WriteReq MSHR uncacheable
system.cpu0.dcache.WriteReq_mshr_uncacheable::total          516                       # number of WriteReq MSHR uncacheable
system.cpu0.dcache.overall_mshr_uncacheable_misses::switch_cpus_10.data          538                       # number of overall MSHR uncacheable misses
system.cpu0.dcache.overall_mshr_uncacheable_misses::total          538                       # number of overall MSHR uncacheable misses
system.cpu0.dcache.ReadReq_mshr_miss_latency::switch_cpus_10.data    210536500                       # number of ReadReq MSHR miss cycles
system.cpu0.dcache.ReadReq_mshr_miss_latency::total    210536500                       # number of ReadReq MSHR miss cycles
system.cpu0.dcache.WriteReq_mshr_miss_latency::switch_cpus_10.data    111783500                       # number of WriteReq MSHR miss cycles
system.cpu0.dcache.WriteReq_mshr_miss_latency::total    111783500                       # number of WriteReq MSHR miss cycles
system.cpu0.dcache.SoftPFReq_mshr_miss_latency::switch_cpus_10.data      4149500                       # number of SoftPFReq MSHR miss cycles
system.cpu0.dcache.SoftPFReq_mshr_miss_latency::total      4149500                       # number of SoftPFReq MSHR miss cycles
system.cpu0.dcache.demand_mshr_miss_latency::switch_cpus_10.data    322320000                       # number of demand (read+write) MSHR miss cycles
system.cpu0.dcache.demand_mshr_miss_latency::total    322320000                       # number of demand (read+write) MSHR miss cycles
system.cpu0.dcache.overall_mshr_miss_latency::switch_cpus_10.data    326469500                       # number of overall MSHR miss cycles
system.cpu0.dcache.overall_mshr_miss_latency::total    326469500                       # number of overall MSHR miss cycles
system.cpu0.dcache.ReadReq_mshr_uncacheable_latency::switch_cpus_10.data      3652500                       # number of ReadReq MSHR uncacheable cycles
system.cpu0.dcache.ReadReq_mshr_uncacheable_latency::total      3652500                       # number of ReadReq MSHR uncacheable cycles
system.cpu0.dcache.overall_mshr_uncacheable_latency::switch_cpus_10.data      3652500                       # number of overall MSHR uncacheable cycles
system.cpu0.dcache.overall_mshr_uncacheable_latency::total      3652500                       # number of overall MSHR uncacheable cycles
system.cpu0.dcache.ReadReq_mshr_miss_rate::switch_cpus_10.data     0.029651                       # mshr miss rate for ReadReq accesses
system.cpu0.dcache.ReadReq_mshr_miss_rate::total     0.029415                       # mshr miss rate for ReadReq accesses
system.cpu0.dcache.WriteReq_mshr_miss_rate::switch_cpus_10.data     0.017240                       # mshr miss rate for WriteReq accesses
system.cpu0.dcache.WriteReq_mshr_miss_rate::total     0.017119                       # mshr miss rate for WriteReq accesses
system.cpu0.dcache.SoftPFReq_mshr_miss_rate::switch_cpus_10.data     0.848544                       # mshr miss rate for SoftPFReq accesses
system.cpu0.dcache.SoftPFReq_mshr_miss_rate::total     0.838772                       # mshr miss rate for SoftPFReq accesses
system.cpu0.dcache.demand_mshr_miss_rate::switch_cpus_10.data     0.024914                       # mshr miss rate for demand accesses
system.cpu0.dcache.demand_mshr_miss_rate::total     0.024724                       # mshr miss rate for demand accesses
system.cpu0.dcache.overall_mshr_miss_rate::switch_cpus_10.data     0.025301                       # mshr miss rate for overall accesses
system.cpu0.dcache.overall_mshr_miss_rate::total     0.025108                       # mshr miss rate for overall accesses
system.cpu0.dcache.ReadReq_avg_mshr_miss_latency::switch_cpus_10.data 10487.496887                       # average ReadReq mshr miss latency
system.cpu0.dcache.ReadReq_avg_mshr_miss_latency::total 10487.496887                       # average ReadReq mshr miss latency
system.cpu0.dcache.WriteReq_avg_mshr_miss_latency::switch_cpus_10.data 15512.558979                       # average WriteReq mshr miss latency
system.cpu0.dcache.WriteReq_avg_mshr_miss_latency::total 15512.558979                       # average WriteReq mshr miss latency
system.cpu0.dcache.SoftPFReq_avg_mshr_miss_latency::switch_cpus_10.data  9495.423341                       # average SoftPFReq mshr miss latency
system.cpu0.dcache.SoftPFReq_avg_mshr_miss_latency::total  9495.423341                       # average SoftPFReq mshr miss latency
system.cpu0.dcache.demand_avg_mshr_miss_latency::switch_cpus_10.data 11814.816172                       # average overall mshr miss latency
system.cpu0.dcache.demand_avg_mshr_miss_latency::total 11814.816172                       # average overall mshr miss latency
system.cpu0.dcache.overall_avg_mshr_miss_latency::switch_cpus_10.data 11778.248791                       # average overall mshr miss latency
system.cpu0.dcache.overall_avg_mshr_miss_latency::total 11778.248791                       # average overall mshr miss latency
system.cpu0.dcache.ReadReq_avg_mshr_uncacheable_latency::switch_cpus_10.data 166022.727273                       # average ReadReq mshr uncacheable latency
system.cpu0.dcache.ReadReq_avg_mshr_uncacheable_latency::total 166022.727273                       # average ReadReq mshr uncacheable latency
system.cpu0.dcache.overall_avg_mshr_uncacheable_latency::switch_cpus_10.data  6789.033457                       # average overall mshr uncacheable latency
system.cpu0.dcache.overall_avg_mshr_uncacheable_latency::total  6789.033457                       # average overall mshr uncacheable latency
system.cpu0.dtb_walker_cache.tags.pwrStateResidencyTicks::UNDEFINED 6665241171500                       # Cumulative time (in ticks) in various power states
system.cpu0.dtb_walker_cache.tags.replacements          275                       # number of replacements
system.cpu0.dtb_walker_cache.tags.tagsinuse    15.998159                       # Cycle average of tags in use
system.cpu0.dtb_walker_cache.tags.total_refs          297                       # Total number of references to valid blocks.
[...]
system.tol2bus.pkt_count_system.cpu4.icache.mem_side::system.l2.cpu_side        38829                       # Packet count per connected master and slave (bytes)
system.tol2bus.pkt_count_system.cpu4.dcache.mem_side::system.l2.cpu_side        47297                       # Packet count per connected master and slave (bytes)
system.tol2bus.pkt_count_system.cpu4.itb_walker_cache.mem_side::system.l2.cpu_side           16                       # Packet count per connected master and slave (bytes)
system.tol2bus.pkt_count_system.cpu4.dtb_walker_cache.mem_side::system.l2.cpu_side          219                       # Packet count per connected master and slave (bytes)
system.tol2bus.pkt_count_system.cpu5.icache.mem_side::system.l2.cpu_side        36462                       # Packet count per connected master and slave (bytes)
system.tol2bus.pkt_count_system.cpu5.dcache.mem_side::system.l2.cpu_side        43016                       # Packet count per connected master and slave (bytes)
system.tol2bus.pkt_count_system.cpu5.itb_walker_cache.mem_side::system.l2.cpu_side           11                       # Packet count per connected master and slave (bytes)
system.tol2bus.pkt_count_system.cpu5.dtb_walker_cache.mem_side::system.l2.cpu_side          233                       # Packet count per connected master and slave (bytes)
system.tol2bus.pkt_count_system.cpu6.icache.mem_side::system.l2.cpu_side        38301                       # Packet count per connected master and slave (bytes)
system.tol2bus.pkt_count_system.cpu6.dcache.mem_side::system.l2.cpu_side        47994                       # Packet count per connected master and slave (bytes)
system.tol2bus.pkt_count_system.cpu6.itb_walker_cache.mem_side::system.l2.cpu_side           47                       # Packet count per connected master and slave (bytes)
system.tol2bus.pkt_count_system.cpu6.dtb_walker_cache.mem_side::system.l2.cpu_side          261                       # Packet count per connected master and slave (bytes)
system.tol2bus.pkt_count_system.cpu7.icache.mem_side::system.l2.cpu_side        37161                       # Packet count per connected master and slave (bytes)
system.tol2bus.pkt_count_system.cpu7.dcache.mem_side::system.l2.cpu_side        47942                       # Packet count per connected master and slave (bytes)
system.tol2bus.pkt_count_system.cpu7.itb_walker_cache.mem_side::system.l2.cpu_side           99                       # Packet count per connected master and slave (bytes)
system.tol2bus.pkt_count_system.cpu7.dtb_walker_cache.mem_side::system.l2.cpu_side          236                       # Packet count per connected master and slave (bytes)
system.tol2bus.pkt_count::total                676834                       # Packet count per connected master and slave (bytes)
system.tol2bus.pkt_size_system.cpu0.icache.mem_side::system.l2.cpu_side      2425472                       # Cumulative packet size per connected master and slave (bytes)
system.tol2bus.pkt_size_system.cpu0.dcache.mem_side::system.l2.cpu_side      1201076                       # Cumulative packet size per connected master and slave (bytes)
system.tol2bus.pkt_size_system.cpu0.itb_walker_cache.mem_side::system.l2.cpu_side        10560                       # Cumulative packet size per connected master and slave (bytes)
system.tol2bus.pkt_size_system.cpu0.dtb_walker_cache.mem_side::system.l2.cpu_side        14784                       # Cumulative packet size per connected master and slave (bytes)
system.tol2bus.pkt_size_system.cpu1.icache.mem_side::system.l2.cpu_side      1688320                       # Cumulative packet size per connected master and slave (bytes)
system.tol2bus.pkt_size_system.cpu1.dcache.mem_side::system.l2.cpu_side       831200                       # Cumulative packet size per connected master and slave (bytes)
system.tol2bus.pkt_size_system.cpu1.itb_walker_cache.mem_side::system.l2.cpu_side         1408                       # Cumulative packet size per connected master and slave (bytes)
system.tol2bus.pkt_size_system.cpu1.dtb_walker_cache.mem_side::system.l2.cpu_side         8128                       # Cumulative packet size per connected master and slave (bytes)
system.tol2bus.pkt_size_system.cpu2.icache.mem_side::system.l2.cpu_side      1504640                       # Cumulative packet size per connected master and slave (bytes)
system.tol2bus.pkt_size_system.cpu2.dcache.mem_side::system.l2.cpu_side       350392                       # Cumulative packet size per connected master and slave (bytes)
system.tol2bus.pkt_size_system.cpu2.itb_walker_cache.mem_side::system.l2.cpu_side          192                       # Cumulative packet size per connected master and slave (bytes)
system.tol2bus.pkt_size_system.cpu2.dtb_walker_cache.mem_side::system.l2.cpu_side         3904                       # Cumulative packet size per connected master and slave (bytes)
system.tol2bus.pkt_size_system.cpu3.icache.mem_side::system.l2.cpu_side      1397888                       # Cumulative packet size per connected master and slave (bytes)
system.tol2bus.pkt_size_system.cpu3.dcache.mem_side::system.l2.cpu_side       844502                       # Cumulative packet size per connected master and slave (bytes)
system.tol2bus.pkt_size_system.cpu3.itb_walker_cache.mem_side::system.l2.cpu_side          128                       # Cumulative packet size per connected master and slave (bytes)
system.tol2bus.pkt_size_system.cpu3.dtb_walker_cache.mem_side::system.l2.cpu_side         3904                       # Cumulative packet size per connected master and slave (bytes)
system.tol2bus.pkt_size_system.cpu4.icache.mem_side::system.l2.cpu_side      1656704                       # Cumulative packet size per connected master and slave (bytes)
system.tol2bus.pkt_size_system.cpu4.dcache.mem_side::system.l2.cpu_side       814692                       # Cumulative packet size per connected master and slave (bytes)
system.tol2bus.pkt_size_system.cpu4.itb_walker_cache.mem_side::system.l2.cpu_side          128                       # Cumulative packet size per connected master and slave (bytes)
system.tol2bus.pkt_size_system.cpu4.dtb_walker_cache.mem_side::system.l2.cpu_side         4224                       # Cumulative packet size per connected master and slave (bytes)
system.tol2bus.pkt_size_system.cpu5.icache.mem_side::system.l2.cpu_side      1555712                       # Cumulative packet size per connected master and slave (bytes)
system.tol2bus.pkt_size_system.cpu5.dcache.mem_side::system.l2.cpu_side       704204                       # Cumulative packet size per connected master and slave (bytes)
system.tol2bus.pkt_size_system.cpu5.itb_walker_cache.mem_side::system.l2.cpu_side          192                       # Cumulative packet size per connected master and slave (bytes)
system.tol2bus.pkt_size_system.cpu5.dtb_walker_cache.mem_side::system.l2.cpu_side         4096                       # Cumulative packet size per connected master and slave (bytes)
system.tol2bus.pkt_size_system.cpu6.icache.mem_side::system.l2.cpu_side      1634176                       # Cumulative packet size per connected master and slave (bytes)
system.tol2bus.pkt_size_system.cpu6.dcache.mem_side::system.l2.cpu_side       886436                       # Cumulative packet size per connected master and slave (bytes)
system.tol2bus.pkt_size_system.cpu6.itb_walker_cache.mem_side::system.l2.cpu_side          320                       # Cumulative packet size per connected master and slave (bytes)
system.tol2bus.pkt_size_system.cpu6.dtb_walker_cache.mem_side::system.l2.cpu_side         4352                       # Cumulative packet size per connected master and slave (bytes)
system.tol2bus.pkt_size_system.cpu7.icache.mem_side::system.l2.cpu_side      1585536                       # Cumulative packet size per connected master and slave (bytes)
system.tol2bus.pkt_size_system.cpu7.dcache.mem_side::system.l2.cpu_side       874360                       # Cumulative packet size per connected master and slave (bytes)
system.tol2bus.pkt_size_system.cpu7.itb_walker_cache.mem_side::system.l2.cpu_side          192                       # Cumulative packet size per connected master and slave (bytes)
system.tol2bus.pkt_size_system.cpu7.dtb_walker_cache.mem_side::system.l2.cpu_side         4608                       # Cumulative packet size per connected master and slave (bytes)
system.tol2bus.pkt_size::total               20016430                       # Cumulative packet size per connected master and slave (bytes)
system.tol2bus.snoops                          105955                       # Total snoops (count)
system.tol2bus.snoopTraffic                   6048768                       # Total snoop traffic (bytes)
system.tol2bus.snoop_fanout::samples           290663                       # Request fanout histogram
system.tol2bus.snoop_fanout::mean            2.976175                       # Request fanout histogram
system.tol2bus.snoop_fanout::stdev           2.783553                       # Request fanout histogram
system.tol2bus.snoop_fanout::underflows             0      0.00%      0.00% # Request fanout histogram
system.tol2bus.snoop_fanout::0                  63657     21.90%     21.90% # Request fanout histogram
system.tol2bus.snoop_fanout::1                  62939     21.65%     43.55% # Request fanout histogram
system.tol2bus.snoop_fanout::2                  52407     18.03%     61.58% # Request fanout histogram
system.tol2bus.snoop_fanout::3                  11132      3.83%     65.41% # Request fanout histogram
system.tol2bus.snoop_fanout::4                   3665      1.26%     66.68% # Request fanout histogram
system.tol2bus.snoop_fanout::5                   2826      0.97%     67.65% # Request fanout histogram
system.tol2bus.snoop_fanout::6                  25303      8.71%     76.35% # Request fanout histogram
system.tol2bus.snoop_fanout::7                  68345     23.51%     99.87% # Request fanout histogram
system.tol2bus.snoop_fanout::8                     40      0.01%     99.88% # Request fanout histogram
system.tol2bus.snoop_fanout::9                     39      0.01%     99.89% # Request fanout histogram
system.tol2bus.snoop_fanout::10                    32      0.01%     99.90% # Request fanout histogram
system.tol2bus.snoop_fanout::11                    30      0.01%     99.91% # Request fanout histogram
system.tol2bus.snoop_fanout::12                    41      0.01%     99.93% # Request fanout histogram
system.tol2bus.snoop_fanout::13                    52      0.02%     99.95% # Request fanout histogram
system.tol2bus.snoop_fanout::14                    49      0.02%     99.96% # Request fanout histogram
system.tol2bus.snoop_fanout::15                    49      0.02%     99.98% # Request fanout histogram
system.tol2bus.snoop_fanout::16                    12      0.00%     99.98% # Request fanout histogram
system.tol2bus.snoop_fanout::17                    20      0.01%     99.99% # Request fanout histogram
system.tol2bus.snoop_fanout::18                    25      0.01%    100.00% # Request fanout histogram
system.tol2bus.snoop_fanout::19                     0      0.00%    100.00% # Request fanout histogram
system.tol2bus.snoop_fanout::20                     0      0.00%    100.00% # Request fanout histogram
system.tol2bus.snoop_fanout::21                     0      0.00%    100.00% # Request fanout histogram
system.tol2bus.snoop_fanout::22                     0      0.00%    100.00% # Request fanout histogram
system.tol2bus.snoop_fanout::23                     0      0.00%    100.00% # Request fanout histogram
system.tol2bus.snoop_fanout::24                     0      0.00%    100.00% # Request fanout histogram
system.tol2bus.snoop_fanout::25                     0      0.00%    100.00% # Request fanout histogram
system.tol2bus.snoop_fanout::26                     0      0.00%    100.00% # Request fanout histogram
system.tol2bus.snoop_fanout::27                     0      0.00%    100.00% # Request fanout histogram
system.tol2bus.snoop_fanout::28                     0      0.00%    100.00% # Request fanout histogram
system.tol2bus.snoop_fanout::29                     0      0.00%    100.00% # Request fanout histogram
system.tol2bus.snoop_fanout::30                     0      0.00%    100.00% # Request fanout histogram
system.tol2bus.snoop_fanout::31                     0      0.00%    100.00% # Request fanout histogram
system.tol2bus.snoop_fanout::32                     0      0.00%    100.00% # Request fanout histogram
system.tol2bus.snoop_fanout::overflows              0      0.00%    100.00% # Request fanout histogram
system.tol2bus.snoop_fanout::min_value              0                       # Request fanout histogram
system.tol2bus.snoop_fanout::max_value             18                       # Request fanout histogram
system.tol2bus.snoop_fanout::total             290663                       # Request fanout histogram
system.tol2bus.reqLayer0.occupancy          389799999                       # Layer occupancy (ticks)
system.tol2bus.reqLayer0.utilization              0.0                       # Layer utilization (%)
system.tol2bus.snoopLayer0.occupancy           125480                       # Layer occupancy (ticks)
system.tol2bus.snoopLayer0.utilization            0.0                       # Layer utilization (%)
system.tol2bus.respLayer0.occupancy          28199997                       # Layer occupancy (ticks)
system.tol2bus.respLayer0.utilization             0.0                       # Layer utilization (%)
system.tol2bus.respLayer1.occupancy          37373495                       # Layer occupancy (ticks)
system.tol2bus.respLayer1.utilization             0.0                       # Layer utilization (%)
system.tol2bus.respLayer2.occupancy            291000                       # Layer occupancy (ticks)
system.tol2bus.respLayer2.utilization             0.0                       # Layer utilization (%)
system.tol2bus.respLayer3.occupancy            445500                       # Layer occupancy (ticks)
system.tol2bus.respLayer3.utilization             0.0                       # Layer utilization (%)
system.tol2bus.respLayer4.occupancy          19786497                       # Layer occupancy (ticks)
system.tol2bus.respLayer4.utilization             0.0                       # Layer utilization (%)
system.tol2bus.respLayer5.occupancy          31797998                       # Layer occupancy (ticks)
system.tol2bus.respLayer5.utilization             0.0                       # Layer utilization (%)
system.tol2bus.respLayer6.occupancy            271500                       # Layer occupancy (ticks)
system.tol2bus.respLayer6.utilization             0.0                       # Layer utilization (%)
system.tol2bus.respLayer7.occupancy            306000                       # Layer occupancy (ticks)
system.tol2bus.respLayer7.utilization             0.0                       # Layer utilization (%)
system.tol2bus.respLayer8.occupancy          17632500                       # Layer occupancy (ticks)
system.tol2bus.respLayer8.utilization             0.0                       # Layer utilization (%)
system.tol2bus.respLayer9.occupancy          10403001                       # Layer occupancy (ticks)
system.tol2bus.respLayer9.utilization             0.0                       # Layer utilization (%)
system.tol2bus.respLayer10.occupancy            19500                       # Layer occupancy (ticks)
system.tol2bus.respLayer10.utilization            0.0                       # Layer utilization (%)
system.tol2bus.respLayer11.occupancy           112500                       # Layer occupancy (ticks)
system.tol2bus.respLayer11.utilization            0.0                       # Layer utilization (%)
system.tol2bus.respLayer12.occupancy         16381500                       # Layer occupancy (ticks)
system.tol2bus.respLayer12.utilization            0.0                       # Layer utilization (%)
system.tol2bus.respLayer13.occupancy         33183500                       # Layer occupancy (ticks)
system.tol2bus.respLayer13.utilization            0.0                       # Layer utilization (%)
system.tol2bus.respLayer14.occupancy             3000                       # Layer occupancy (ticks)
system.tol2bus.respLayer14.utilization            0.0                       # Layer utilization (%)
system.tol2bus.respLayer15.occupancy            87000                       # Layer occupancy (ticks)
system.tol2bus.respLayer15.utilization            0.0                       # Layer utilization (%)
system.tol2bus.respLayer16.occupancy         19414999                       # Layer occupancy (ticks)
system.tol2bus.respLayer16.utilization            0.0                       # Layer utilization (%)
system.tol2bus.respLayer17.occupancy         33791500                       # Layer occupancy (ticks)
system.tol2bus.respLayer17.utilization            0.0                       # Layer utilization (%)
system.tol2bus.respLayer18.occupancy            15000                       # Layer occupancy (ticks)
system.tol2bus.respLayer18.utilization            0.0                       # Layer utilization (%)
system.tol2bus.respLayer19.occupancy           130999                       # Layer occupancy (ticks)
system.tol2bus.respLayer19.utilization            0.0                       # Layer utilization (%)
system.tol2bus.respLayer20.occupancy         18231499                       # Layer occupancy (ticks)
system.tol2bus.respLayer20.utilization            0.0                       # Layer utilization (%)
system.tol2bus.respLayer21.occupancy         30496499                       # Layer occupancy (ticks)
system.tol2bus.respLayer21.utilization            0.0                       # Layer utilization (%)
system.tol2bus.respLayer22.occupancy            10500                       # Layer occupancy (ticks)
system.tol2bus.respLayer22.utilization            0.0                       # Layer utilization (%)
system.tol2bus.respLayer23.occupancy           141499                       # Layer occupancy (ticks)
system.tol2bus.respLayer23.utilization            0.0                       # Layer utilization (%)
system.tol2bus.respLayer24.occupancy         19152496                       # Layer occupancy (ticks)
system.tol2bus.respLayer24.utilization            0.0                       # Layer utilization (%)
system.tol2bus.respLayer25.occupancy         33650498                       # Layer occupancy (ticks)
system.tol2bus.respLayer25.utilization            0.0                       # Layer utilization (%)
system.tol2bus.respLayer26.occupancy            33000                       # Layer occupancy (ticks)
system.tol2bus.respLayer26.utilization            0.0                       # Layer utilization (%)
system.tol2bus.respLayer27.occupancy           157500                       # Layer occupancy (ticks)
system.tol2bus.respLayer27.utilization            0.0                       # Layer utilization (%)
system.tol2bus.respLayer28.occupancy         18580500                       # Layer occupancy (ticks)
system.tol2bus.respLayer28.utilization            0.0                       # Layer utilization (%)
system.tol2bus.respLayer29.occupancy         33656500                       # Layer occupancy (ticks)
system.tol2bus.respLayer29.utilization            0.0                       # Layer utilization (%)
system.tol2bus.respLayer30.occupancy            82500                       # Layer occupancy (ticks)
system.tol2bus.respLayer30.utilization            0.0                       # Layer utilization (%)
system.tol2bus.respLayer31.occupancy           136500                       # Layer occupancy (ticks)
system.tol2bus.respLayer31.utilization            0.0                       # Layer utilization (%)

---------- End Simulation Statistics   ----------
