
---------- Begin Simulation Statistics ----------
sim_seconds                                  0.100941                       # Number of seconds simulated
sim_ticks                                100940829500                       # Number of ticks simulated
final_tick                               100940829500                       # Number of ticks from beginning of simulation (restored from checkpoints and never reset)
sim_freq                                 1000000000000                       # Frequency of simulated ticks
host_inst_rate                                  70144                       # Simulator instruction rate (inst/s)
host_op_rate                                    72984                       # Simulator op (including micro ops) rate (op/s)
host_tick_rate                               17579953                       # Simulator tick rate (ticks/s)
host_mem_usage                                 666348                       # Number of bytes of host memory used
host_seconds                                  5741.81                       # Real time elapsed on the host
sim_insts                                   402752520                       # Number of instructions simulated
sim_ops                                     419059513                       # Number of ops (including micro ops) simulated
system.voltage_domain.voltage                       1                       # Voltage in Volts
system.clk_domain.clock                          1000                       # Clock period in ticks
system.mem_ctrls.pwrStateResidencyTicks::UNDEFINED 100940829500                       # Cumulative time (in ticks) in various power states
system.mem_ctrls.bytes_read::cpu.inst           69184                       # Number of bytes read from this memory
system.mem_ctrls.bytes_read::cpu.data           35328                       # Number of bytes read from this memory
system.mem_ctrls.bytes_read::l2.prefetcher        98048                       # Number of bytes read from this memory
system.mem_ctrls.bytes_read::total             202560                       # Number of bytes read from this memory
system.mem_ctrls.bytes_inst_read::cpu.inst        69184                       # Number of instructions bytes read from this memory
system.mem_ctrls.bytes_inst_read::total         69184                       # Number of instructions bytes read from this memory
system.mem_ctrls.num_reads::cpu.inst             1081                       # Number of read requests responded to by this memory
system.mem_ctrls.num_reads::cpu.data              552                       # Number of read requests responded to by this memory
system.mem_ctrls.num_reads::l2.prefetcher         1532                       # Number of read requests responded to by this memory
system.mem_ctrls.num_reads::total                3165                       # Number of read requests responded to by this memory
system.mem_ctrls.bw_read::cpu.inst             685392                       # Total read bandwidth from this memory (bytes/s)
system.mem_ctrls.bw_read::cpu.data             349987                       # Total read bandwidth from this memory (bytes/s)
system.mem_ctrls.bw_read::l2.prefetcher        971341                       # Total read bandwidth from this memory (bytes/s)
system.mem_ctrls.bw_read::total               2006720                       # Total read bandwidth from this memory (bytes/s)
system.mem_ctrls.bw_inst_read::cpu.inst        685392                       # Instruction read bandwidth from this memory (bytes/s)
system.mem_ctrls.bw_inst_read::total           685392                       # Instruction read bandwidth from this memory (bytes/s)
system.mem_ctrls.bw_total::cpu.inst            685392                       # Total bandwidth to/from this memory (bytes/s)
system.mem_ctrls.bw_total::cpu.data            349987                       # Total bandwidth to/from this memory (bytes/s)
system.mem_ctrls.bw_total::l2.prefetcher       971341                       # Total bandwidth to/from this memory (bytes/s)
system.mem_ctrls.bw_total::total              2006720                       # Total bandwidth to/from this memory (bytes/s)
system.mem_ctrls.readReqs                        3165                       # Number of read requests accepted
system.mem_ctrls.writeReqs                          0                       # Number of write requests accepted
system.mem_ctrls.readBursts                      3165                       # Number of DRAM read bursts, including those serviced by the write queue
system.mem_ctrls.writeBursts                        0                       # Number of DRAM write bursts, including those merged in the write queue
system.mem_ctrls.bytesReadDRAM                 202560                       # Total number of bytes read from DRAM
system.mem_ctrls.bytesReadWrQ                       0                       # Total number of bytes read from write queue
system.mem_ctrls.bytesWritten                       0                       # Total number of bytes written to DRAM
system.mem_ctrls.bytesReadSys                  202560                       # Total read bytes from the system interface side
system.mem_ctrls.bytesWrittenSys                    0                       # Total written bytes from the system interface side
system.mem_ctrls.servicedByWrQ                      0                       # Number of DRAM read bursts serviced by the write queue
system.mem_ctrls.mergedWrBursts                     0                       # Number of DRAM write bursts merged with an existing one
system.mem_ctrls.neitherReadNorWriteReqs            0                       # Number of requests that are neither read nor write
system.mem_ctrls.perBankRdBursts::0               118                       # Per bank write bursts
system.mem_ctrls.perBankRdBursts::1               158                       # Per bank write bursts
system.mem_ctrls.perBankRdBursts::2               224                       # Per bank write bursts
system.mem_ctrls.perBankRdBursts::3               198                       # Per bank write bursts
system.mem_ctrls.perBankRdBursts::4               251                       # Per bank write bursts
system.mem_ctrls.perBankRdBursts::5               283                       # Per bank write bursts
system.mem_ctrls.perBankRdBursts::6               202                       # Per bank write bursts
system.mem_ctrls.perBankRdBursts::7               239                       # Per bank write bursts
system.mem_ctrls.perBankRdBursts::8               233                       # Per bank write bursts
system.mem_ctrls.perBankRdBursts::9               140                       # Per bank write bursts
system.mem_ctrls.perBankRdBursts::10              245                       # Per bank write bursts
system.mem_ctrls.perBankRdBursts::11              158                       # Per bank write bursts
system.mem_ctrls.perBankRdBursts::12              207                       # Per bank write bursts
system.mem_ctrls.perBankRdBursts::13              403                       # Per bank write bursts
system.mem_ctrls.perBankRdBursts::14               72                       # Per bank write bursts
system.mem_ctrls.perBankRdBursts::15               34                       # Per bank write bursts
system.mem_ctrls.perBankWrBursts::0                 0                       # Per bank write bursts
system.mem_ctrls.perBankWrBursts::1                 0                       # Per bank write bursts
system.mem_ctrls.perBankWrBursts::2                 0                       # Per bank write bursts
system.mem_ctrls.perBankWrBursts::3                 0                       # Per bank write bursts
system.mem_ctrls.perBankWrBursts::4                 0                       # Per bank write bursts
system.mem_ctrls.perBankWrBursts::5                 0                       # Per bank write bursts
system.mem_ctrls.perBankWrBursts::6                 0                       # Per bank write bursts
system.mem_ctrls.perBankWrBursts::7                 0                       # Per bank write bursts
system.mem_ctrls.perBankWrBursts::8                 0                       # Per bank write bursts
system.mem_ctrls.perBankWrBursts::9                 0                       # Per bank write bursts
system.mem_ctrls.perBankWrBursts::10                0                       # Per bank write bursts
system.mem_ctrls.perBankWrBursts::11                0                       # Per bank write bursts
system.mem_ctrls.perBankWrBursts::12                0                       # Per bank write bursts
system.mem_ctrls.perBankWrBursts::13                0                       # Per bank write bursts
system.mem_ctrls.perBankWrBursts::14                0                       # Per bank write bursts
system.mem_ctrls.perBankWrBursts::15                0                       # Per bank write bursts
system.mem_ctrls.numRdRetry                         0                       # Number of times read queue was full causing retry
system.mem_ctrls.numWrRetry                         0                       # Number of times write queue was full causing retry
system.mem_ctrls.totGap                  100940757500                       # Total gap between requests
system.mem_ctrls.readPktSize::0                     0                       # Read request sizes (log2)
system.mem_ctrls.readPktSize::1                     0                       # Read request sizes (log2)
system.mem_ctrls.readPktSize::2                     0                       # Read request sizes (log2)
system.mem_ctrls.readPktSize::3                     0                       # Read request sizes (log2)
system.mem_ctrls.readPktSize::4                     0                       # Read request sizes (log2)
system.mem_ctrls.readPktSize::5                     0                       # Read request sizes (log2)
system.mem_ctrls.readPktSize::6                  3165                       # Read request sizes (log2)
system.mem_ctrls.writePktSize::0                    0                       # Write request sizes (log2)
system.mem_ctrls.writePktSize::1                    0                       # Write request sizes (log2)
system.mem_ctrls.writePktSize::2                    0                       # Write request sizes (log2)
system.mem_ctrls.writePktSize::3                    0                       # Write request sizes (log2)
system.mem_ctrls.writePktSize::4                    0                       # Write request sizes (log2)
system.mem_ctrls.writePktSize::5                    0                       # Write request sizes (log2)
system.mem_ctrls.writePktSize::6                    0                       # Write request sizes (log2)
system.mem_ctrls.rdQLenPdf::0                    1269                       # What read queue length does an incoming req see
system.mem_ctrls.rdQLenPdf::1                    1214                       # What read queue length does an incoming req see
system.mem_ctrls.rdQLenPdf::2                     298                       # What read queue length does an incoming req see
system.mem_ctrls.rdQLenPdf::3                     142                       # What read queue length does an incoming req see
system.mem_ctrls.rdQLenPdf::4                      82                       # What read queue length does an incoming req see
system.mem_ctrls.rdQLenPdf::5                      49                       # What read queue length does an incoming req see
system.mem_ctrls.rdQLenPdf::6                      34                       # What read queue length does an incoming req see
system.mem_ctrls.rdQLenPdf::7                      35                       # What read queue length does an incoming req see
system.mem_ctrls.rdQLenPdf::8                      29                       # What read queue length does an incoming req see
system.mem_ctrls.rdQLenPdf::9                       5                       # What read queue length does an incoming req see
system.mem_ctrls.rdQLenPdf::10                      4                       # What read queue length does an incoming req see
system.mem_ctrls.rdQLenPdf::11                      3                       # What read queue length does an incoming req see
system.mem_ctrls.rdQLenPdf::12                      1                       # What read queue length does an incoming req see
system.mem_ctrls.rdQLenPdf::13                      0                       # What read queue length does an incoming req see
system.mem_ctrls.rdQLenPdf::14                      0                       # What read queue length does an incoming req see
system.mem_ctrls.rdQLenPdf::15                      0                       # What read queue length does an incoming req see
system.mem_ctrls.rdQLenPdf::16                      0                       # What read queue length does an incoming req see
system.mem_ctrls.rdQLenPdf::17                      0                       # What read queue length does an incoming req see
system.mem_ctrls.rdQLenPdf::18                      0                       # What read queue length does an incoming req see
system.mem_ctrls.rdQLenPdf::19                      0                       # What read queue length does an incoming req see
system.mem_ctrls.rdQLenPdf::20                      0                       # What read queue length does an incoming req see
system.mem_ctrls.rdQLenPdf::21                      0                       # What read queue length does an incoming req see
system.mem_ctrls.rdQLenPdf::22                      0                       # What read queue length does an incoming req see
system.mem_ctrls.rdQLenPdf::23                      0                       # What read queue length does an incoming req see
system.mem_ctrls.rdQLenPdf::24                      0                       # What read queue length does an incoming req see
system.mem_ctrls.rdQLenPdf::25                      0                       # What read queue length does an incoming req see
system.mem_ctrls.rdQLenPdf::26                      0                       # What read queue length does an incoming req see
system.mem_ctrls.rdQLenPdf::27                      0                       # What read queue length does an incoming req see
system.mem_ctrls.rdQLenPdf::28                      0                       # What read queue length does an incoming req see
system.mem_ctrls.rdQLenPdf::29                      0                       # What read queue length does an incoming req see
system.mem_ctrls.rdQLenPdf::30                      0                       # What read queue length does an incoming req see
system.mem_ctrls.rdQLenPdf::31                      0                       # What read queue length does an incoming req see
system.mem_ctrls.wrQLenPdf::0                       0                       # What write queue length does an incoming req see
system.mem_ctrls.wrQLenPdf::1                       0                       # What write queue length does an incoming req see
system.mem_ctrls.wrQLenPdf::2                       0                       # What write queue length does an incoming req see
system.mem_ctrls.wrQLenPdf::3                       0                       # What write queue length does an incoming req see
system.mem_ctrls.wrQLenPdf::4                       0                       # What write queue length does an incoming req see
system.mem_ctrls.wrQLenPdf::5                       0                       # What write queue length does an incoming req see
system.mem_ctrls.wrQLenPdf::6                       0                       # What write queue length does an incoming req see
system.mem_ctrls.wrQLenPdf::7                       0                       # What write queue length does an incoming req see
system.mem_ctrls.wrQLenPdf::8                       0                       # What write queue length does an incoming req see
system.mem_ctrls.wrQLenPdf::9                       0                       # What write queue length does an incoming req see
system.mem_ctrls.wrQLenPdf::10                      0                       # What write queue length does an incoming req see
system.mem_ctrls.wrQLenPdf::11                      0                       # What write queue length does an incoming req see
system.mem_ctrls.wrQLenPdf::12                      0                       # What write queue length does an incoming req see
system.mem_ctrls.wrQLenPdf::13                      0                       # What write queue length does an incoming req see
system.mem_ctrls.wrQLenPdf::14                      0                       # What write queue length does an incoming req see
system.mem_ctrls.wrQLenPdf::15                      0                       # What write queue length does an incoming req see
system.mem_ctrls.wrQLenPdf::16                      0                       # What write queue length does an incoming req see
system.mem_ctrls.wrQLenPdf::17                      0                       # What write queue length does an incoming req see
system.mem_ctrls.wrQLenPdf::18                      0                       # What write queue length does an incoming req see
system.mem_ctrls.wrQLenPdf::19                      0                       # What write queue length does an incoming req see
system.mem_ctrls.wrQLenPdf::20                      0                       # What write queue length does an incoming req see
system.mem_ctrls.wrQLenPdf::21                      0                       # What write queue length does an incoming req see
system.mem_ctrls.wrQLenPdf::22                      0                       # What write queue length does an incoming req see
system.mem_ctrls.wrQLenPdf::23                      0                       # What write queue length does an incoming req see
system.mem_ctrls.wrQLenPdf::24                      0                       # What write queue length does an incoming req see
system.mem_ctrls.wrQLenPdf::25                      0                       # What write queue length does an incoming req see
system.mem_ctrls.wrQLenPdf::26                      0                       # What write queue length does an incoming req see
system.mem_ctrls.wrQLenPdf::27                      0                       # What write queue length does an incoming req see
system.mem_ctrls.wrQLenPdf::28                      0                       # What write queue length does an incoming req see
system.mem_ctrls.wrQLenPdf::29                      0                       # What write queue length does an incoming req see
system.mem_ctrls.wrQLenPdf::30                      0                       # What write queue length does an incoming req see
system.mem_ctrls.wrQLenPdf::31                      0                       # What write queue length does an incoming req see
system.mem_ctrls.wrQLenPdf::32                      0                       # What write queue length does an incoming req see
system.mem_ctrls.wrQLenPdf::33                      0                       # What write queue length does an incoming req see
system.mem_ctrls.wrQLenPdf::34                      0                       # What write queue length does an incoming req see
system.mem_ctrls.wrQLenPdf::35                      0                       # What write queue length does an incoming req see
system.mem_ctrls.wrQLenPdf::36                      0                       # What write queue length does an incoming req see
system.mem_ctrls.wrQLenPdf::37                      0                       # What write queue length does an incoming req see
system.mem_ctrls.wrQLenPdf::38                      0                       # What write queue length does an incoming req see
system.mem_ctrls.wrQLenPdf::39                      0                       # What write queue length does an incoming req see
system.mem_ctrls.wrQLenPdf::40                      0                       # What write queue length does an incoming req see
system.mem_ctrls.wrQLenPdf::41                      0                       # What write queue length does an incoming req see
system.mem_ctrls.wrQLenPdf::42                      0                       # What write queue length does an incoming req see
system.mem_ctrls.wrQLenPdf::43                      0                       # What write queue length does an incoming req see
system.mem_ctrls.wrQLenPdf::44                      0                       # What write queue length does an incoming req see
system.mem_ctrls.wrQLenPdf::45                      0                       # What write queue length does an incoming req see
system.mem_ctrls.wrQLenPdf::46                      0                       # What write queue length does an incoming req see
system.mem_ctrls.wrQLenPdf::47                      0                       # What write queue length does an incoming req see
system.mem_ctrls.wrQLenPdf::48                      0                       # What write queue length does an incoming req see
system.mem_ctrls.wrQLenPdf::49                      0                       # What write queue length does an incoming req see
system.mem_ctrls.wrQLenPdf::50                      0                       # What write queue length does an incoming req see
system.mem_ctrls.wrQLenPdf::51                      0                       # What write queue length does an incoming req see
system.mem_ctrls.wrQLenPdf::52                      0                       # What write queue length does an incoming req see
system.mem_ctrls.wrQLenPdf::53                      0                       # What write queue length does an incoming req see
system.mem_ctrls.wrQLenPdf::54                      0                       # What write queue length does an incoming req see
system.mem_ctrls.wrQLenPdf::55                      0                       # What write queue length does an incoming req see
system.mem_ctrls.wrQLenPdf::56                      0                       # What write queue length does an incoming req see
system.mem_ctrls.wrQLenPdf::57                      0                       # What write queue length does an incoming req see
system.mem_ctrls.wrQLenPdf::58                      0                       # What write queue length does an incoming req see
system.mem_ctrls.wrQLenPdf::59                      0                       # What write queue length does an incoming req see
system.mem_ctrls.wrQLenPdf::60                      0                       # What write queue length does an incoming req see
system.mem_ctrls.wrQLenPdf::61                      0                       # What write queue length does an incoming req see
system.mem_ctrls.wrQLenPdf::62                      0                       # What write queue length does an incoming req see
system.mem_ctrls.wrQLenPdf::63                      0                       # What write queue length does an incoming req see
system.mem_ctrls.bytesPerActivate::samples          562                       # Bytes accessed per row activation
system.mem_ctrls.bytesPerActivate::mean    358.604982                       # Bytes accessed per row activation
system.mem_ctrls.bytesPerActivate::gmean   193.513849                       # Bytes accessed per row activation
system.mem_ctrls.bytesPerActivate::stdev   378.932835                       # Bytes accessed per row activation
system.mem_ctrls.bytesPerActivate::0-127          234     41.64%     41.64% # Bytes accessed per row activation
system.mem_ctrls.bytesPerActivate::128-255           94     16.73%     58.36% # Bytes accessed per row activation
system.mem_ctrls.bytesPerActivate::256-383           43      7.65%     66.01% # Bytes accessed per row activation
system.mem_ctrls.bytesPerActivate::384-511           25      4.45%     70.46% # Bytes accessed per row activation
system.mem_ctrls.bytesPerActivate::512-639           26      4.63%     75.09% # Bytes accessed per row activation
system.mem_ctrls.bytesPerActivate::640-767           14      2.49%     77.58% # Bytes accessed per row activation
system.mem_ctrls.bytesPerActivate::768-895            5      0.89%     78.47% # Bytes accessed per row activation
system.mem_ctrls.bytesPerActivate::896-1023           10      1.78%     80.25% # Bytes accessed per row activation
system.mem_ctrls.bytesPerActivate::1024-1151          111     19.75%    100.00% # Bytes accessed per row activation
system.mem_ctrls.bytesPerActivate::total          562                       # Bytes accessed per row activation
system.mem_ctrls.totQLat                    146059397                       # Total ticks spent queuing
system.mem_ctrls.totMemAccLat               205403147                       # Total ticks spent from burst creation until serviced by the DRAM
system.mem_ctrls.totBusLat                   15825000                       # Total ticks spent in databus transfers
system.mem_ctrls.avgQLat                     46148.31                       # Average queueing delay per DRAM burst
system.mem_ctrls.avgBusLat                    5000.00                       # Average bus latency per DRAM burst
system.mem_ctrls.avgMemAccLat                64898.31                       # Average memory access latency per DRAM burst
system.mem_ctrls.avgRdBW                         2.01                       # Average DRAM read bandwidth in MiByte/s
system.mem_ctrls.avgWrBW                         0.00                       # Average achieved write bandwidth in MiByte/s
system.mem_ctrls.avgRdBWSys                      2.01                       # Average system read bandwidth in MiByte/s
system.mem_ctrls.avgWrBWSys                      0.00                       # Average system write bandwidth in MiByte/s
system.mem_ctrls.peakBW                      12800.00                       # Theoretical peak bandwidth in MiByte/s
system.mem_ctrls.busUtil                         0.02                       # Data bus utilization in percentage
system.mem_ctrls.busUtilRead                     0.02                       # Data bus utilization in percentage for reads
system.mem_ctrls.busUtilWrite                    0.00                       # Data bus utilization in percentage for writes
system.mem_ctrls.avgRdQLen                       1.61                       # Average read queue length when enqueuing
system.mem_ctrls.avgWrQLen                       0.00                       # Average write queue length when enqueuing
system.mem_ctrls.readRowHits                     2597                       # Number of row buffer hits during reads
system.mem_ctrls.writeRowHits                       0                       # Number of row buffer hits during writes
system.mem_ctrls.readRowHitRate                 82.05                       # Row buffer hit rate for reads
system.mem_ctrls.writeRowHitRate                  nan                       # Row buffer hit rate for writes
system.mem_ctrls.avgGap                   31892814.38                       # Average gap between requests
system.mem_ctrls.pageHitRate                    82.05                       # Row buffer hit rate, read and write combined
system.mem_ctrls_0.actEnergy                  2013480                       # Energy for activate commands per rank (pJ)
system.mem_ctrls_0.preEnergy                  1058805                       # Energy for precharge commands per rank (pJ)
system.mem_ctrls_0.readEnergy                11945220                       # Energy for read commands per rank (pJ)
system.mem_ctrls_0.writeEnergy                      0                       # Energy for write commands per rank (pJ)
system.mem_ctrls_0.refreshEnergy         177630960.000000                       # Energy for refresh commands per rank (pJ)
system.mem_ctrls_0.actBackEnergy             47736930                       # Energy for active background per rank (pJ)
system.mem_ctrls_0.preBackEnergy             11614560                       # Energy for precharge background per rank (pJ)
system.mem_ctrls_0.actPowerDownEnergy       346298940                       # Energy for active power-down per rank (pJ)
system.mem_ctrls_0.prePowerDownEnergy       273498240                       # Energy for precharge power-down per rank (pJ)
system.mem_ctrls_0.selfRefreshEnergy      23889365760                       # Energy for self refresh per rank (pJ)
system.mem_ctrls_0.totalEnergy            24761242845                       # Total energy per rank (pJ)
system.mem_ctrls_0.averagePower            245.304531                       # Core power per rank (mW)
system.mem_ctrls_0.totalIdleTime         100805695276                       # Total Idle time Per DRAM Rank
system.mem_ctrls_0.memoryStateTime::IDLE     24181000                       # Time in different power states
system.mem_ctrls_0.memoryStateTime::REF      75674000                       # Time in different power states
system.mem_ctrls_0.memoryStateTime::SREF  99334061500                       # Time in different power states
system.mem_ctrls_0.memoryStateTime::PRE_PDN    712237493                       # Time in different power states
system.mem_ctrls_0.memoryStateTime::ACT      35238974                       # Time in different power states
system.mem_ctrls_0.memoryStateTime::ACT_PDN    759436533                       # Time in different power states
system.mem_ctrls_1.actEnergy                  2042040                       # Energy for activate commands per rank (pJ)
system.mem_ctrls_1.preEnergy                  1073985                       # Energy for precharge commands per rank (pJ)
system.mem_ctrls_1.readEnergy                10652880                       # Energy for read commands per rank (pJ)
system.mem_ctrls_1.writeEnergy                      0                       # Energy for write commands per rank (pJ)
system.mem_ctrls_1.refreshEnergy         205904400.000000                       # Energy for refresh commands per rank (pJ)
system.mem_ctrls_1.actBackEnergy             50745390                       # Energy for active background per rank (pJ)
system.mem_ctrls_1.preBackEnergy             13693920                       # Energy for precharge background per rank (pJ)
system.mem_ctrls_1.actPowerDownEnergy       405513960                       # Energy for active power-down per rank (pJ)
system.mem_ctrls_1.prePowerDownEnergy       312340800                       # Energy for precharge power-down per rank (pJ)
system.mem_ctrls_1.selfRefreshEnergy      23839876200                       # Energy for self refresh per rank (pJ)
system.mem_ctrls_1.totalEnergy            24841843575                       # Total energy per rank (pJ)
system.mem_ctrls_1.averagePower            246.103026                       # Core power per rank (mW)
system.mem_ctrls_1.totalIdleTime         100793250053                       # Total Idle time Per DRAM Rank
system.mem_ctrls_1.memoryStateTime::IDLE     28566500                       # Time in different power states
system.mem_ctrls_1.memoryStateTime::REF      87730000                       # Time in different power states
system.mem_ctrls_1.memoryStateTime::SREF  99091212500                       # Time in different power states
system.mem_ctrls_1.memoryStateTime::PRE_PDN    813389000                       # Time in different power states
system.mem_ctrls_1.memoryStateTime::ACT      30641197                       # Time in different power states
system.mem_ctrls_1.memoryStateTime::ACT_PDN    889290303                       # Time in different power states
system.pwrStateResidencyTicks::UNDEFINED 100940829500                       # Cumulative time (in ticks) in various power states
system.cpu.branchPred.lookups                50258576                       # Number of BP lookups
system.cpu.branchPred.condPredicted          43925888                       # Number of conditional branches predicted
system.cpu.branchPred.condIncorrect            250455                       # Number of conditional branches incorrect
system.cpu.branchPred.BTBLookups             42170533                       # Number of BTB lookups
system.cpu.branchPred.BTBHits                38095825                       # Number of BTB hits
system.cpu.branchPred.BTBCorrect                    0                       # Number of correct BTB predictions (this stat may not work properly.
system.cpu.branchPred.BTBHitPct             90.337547                       # BTB Hit Percentage
system.cpu.branchPred.usedRAS                 2805453                       # Number of times the RAS was used to get a target.
system.cpu.branchPred.RASInCorrect              76126                       # Number of incorrect RAS predictions.
system.cpu.branchPred.indirectLookups          215853                       # Number of indirect predictor lookups.
system.cpu.branchPred.indirectHits             215191                       # Number of indirect target hits.
system.cpu.branchPred.indirectMisses              662                       # Number of indirect misses.
system.cpu.branchPredindirectMispredicted          614                       # Number of mispredicted indirect branches.
system.cpu_voltage_domain.voltage                   1                       # Voltage in Volts
system.cpu_clk_domain.clock                       500                       # Clock period in ticks
system.cpu.dstage2_mmu.stage2_tlb.walker.pwrStateResidencyTicks::UNDEFINED 100940829500                       # Cumulative time (in ticks) in various power states
system.cpu.dstage2_mmu.stage2_tlb.walker.walks            0                       # Table walker walks requested
system.cpu.dstage2_mmu.stage2_tlb.walker.walkRequestOrigin_Requested::Data            0                       # Table walker requests started/completed, data/inst
system.cpu.dstage2_mmu.stage2_tlb.walker.walkRequestOrigin_Requested::Inst            0                       # Table walker requests started/completed, data/inst
system.cpu.dstage2_mmu.stage2_tlb.walker.walkRequestOrigin_Requested::total            0                       # Table walker requests started/completed, data/inst
system.cpu.dstage2_mmu.stage2_tlb.walker.walkRequestOrigin_Completed::Data            0                       # Table walker requests started/completed, data/inst
system.cpu.dstage2_mmu.stage2_tlb.walker.walkRequestOrigin_Completed::Inst            0                       # Table walker requests started/completed, data/inst
system.cpu.dstage2_mmu.stage2_tlb.walker.walkRequestOrigin_Completed::total            0                       # Table walker requests started/completed, data/inst
system.cpu.dstage2_mmu.stage2_tlb.walker.walkRequestOrigin::total            0                       # Table walker requests started/completed, data/inst
system.cpu.dstage2_mmu.stage2_tlb.inst_hits            0                       # ITB inst hits
system.cpu.dstage2_mmu.stage2_tlb.inst_misses            0                       # ITB inst misses
system.cpu.dstage2_mmu.stage2_tlb.read_hits            0                       # DTB read hits
system.cpu.dstage2_mmu.stage2_tlb.read_misses            0                       # DTB read misses
system.cpu.dstage2_mmu.stage2_tlb.write_hits            0                       # DTB write hits
system.cpu.dstage2_mmu.stage2_tlb.write_misses            0                       # DTB write misses
system.cpu.dstage2_mmu.stage2_tlb.flush_tlb            0                       # Number of times complete TLB was flushed
system.cpu.dstage2_mmu.stage2_tlb.flush_tlb_mva            0                       # Number of times TLB was flushed by MVA
system.cpu.dstage2_mmu.stage2_tlb.flush_tlb_mva_asid            0                       # Number of times TLB was flushed by MVA & ASID
system.cpu.dstage2_mmu.stage2_tlb.flush_tlb_asid            0                       # Number of times TLB was flushed by ASID
system.cpu.dstage2_mmu.stage2_tlb.flush_entries            0                       # Number of entries that have been flushed from TLB
system.cpu.dstage2_mmu.stage2_tlb.align_faults            0                       # Number of TLB faults due to alignment restrictions
system.cpu.dstage2_mmu.stage2_tlb.prefetch_faults            0                       # Number of TLB faults due to prefetch
system.cpu.dstage2_mmu.stage2_tlb.domain_faults            0                       # Number of TLB faults due to domain restrictions
system.cpu.dstage2_mmu.stage2_tlb.perms_faults            0                       # Number of TLB faults due to permissions restrictions
system.cpu.dstage2_mmu.stage2_tlb.read_accesses            0                       # DTB read accesses
system.cpu.dstage2_mmu.stage2_tlb.write_accesses            0                       # DTB write accesses
system.cpu.dstage2_mmu.stage2_tlb.inst_accesses            0                       # ITB inst accesses
system.cpu.dstage2_mmu.stage2_tlb.hits              0                       # DTB hits
system.cpu.dstage2_mmu.stage2_tlb.misses            0                       # DTB misses
system.cpu.dstage2_mmu.stage2_tlb.accesses            0                       # DTB accesses
system.cpu.dtb.walker.pwrStateResidencyTicks::UNDEFINED 100940829500                       # Cumulative time (in ticks) in various power states
system.cpu.dtb.walker.walks                         0                       # Table walker walks requested
system.cpu.dtb.walker.walkRequestOrigin_Requested::Data            0                       # Table walker requests started/completed, data/inst
system.cpu.dtb.walker.walkRequestOrigin_Requested::Inst            0                       # Table walker requests started/completed, data/inst
system.cpu.dtb.walker.walkRequestOrigin_Requested::total            0                       # Table walker requests started/completed, data/inst
system.cpu.dtb.walker.walkRequestOrigin_Completed::Data            0                       # Table walker requests started/completed, data/inst
system.cpu.dtb.walker.walkRequestOrigin_Completed::Inst            0                       # Table walker requests started/completed, data/inst
system.cpu.dtb.walker.walkRequestOrigin_Completed::total            0                       # Table walker requests started/completed, data/inst
system.cpu.dtb.walker.walkRequestOrigin::total            0                       # Table walker requests started/completed, data/inst
system.cpu.dtb.inst_hits                            0                       # ITB inst hits
system.cpu.dtb.inst_misses                          0                       # ITB inst misses
system.cpu.dtb.read_hits                            0                       # DTB read hits
system.cpu.dtb.read_misses                          0                       # DTB read misses
system.cpu.dtb.write_hits                           0                       # DTB write hits
system.cpu.dtb.write_misses                         0                       # DTB write misses
system.cpu.dtb.flush_tlb                            0                       # Number of times complete TLB was flushed
system.cpu.dtb.flush_tlb_mva                        0                       # Number of times TLB was flushed by MVA
system.cpu.dtb.flush_tlb_mva_asid                   0                       # Number of times TLB was flushed by MVA & ASID
system.cpu.dtb.flush_tlb_asid                       0                       # Number of times TLB was flushed by ASID
system.cpu.dtb.flush_entries                        0                       # Number of entries that have been flushed from TLB
system.cpu.dtb.align_faults                         0                       # Number of TLB faults due to alignment restrictions
system.cpu.dtb.prefetch_faults                      0                       # Number of TLB faults due to prefetch
system.cpu.dtb.domain_faults                        0                       # Number of TLB faults due to domain restrictions
system.cpu.dtb.perms_faults                         0                       # Number of TLB faults due to permissions restrictions
system.cpu.dtb.read_accesses                        0                       # DTB read accesses
system.cpu.dtb.write_accesses                       0                       # DTB write accesses
system.cpu.dtb.inst_accesses                        0                       # ITB inst accesses
system.cpu.dtb.hits                                 0                       # DTB hits
system.cpu.dtb.misses                               0                       # DTB misses
system.cpu.dtb.accesses                             0                       # DTB accesses
system.cpu.istage2_mmu.stage2_tlb.walker.pwrStateResidencyTicks::UNDEFINED 100940829500                       # Cumulative time (in ticks) in various power states
system.cpu.istage2_mmu.stage2_tlb.walker.walks            0                       # Table walker walks requested
system.cpu.istage2_mmu.stage2_tlb.walker.walkRequestOrigin_Requested::Data            0                       # Table walker requests started/completed, data/inst
system.cpu.istage2_mmu.stage2_tlb.walker.walkRequestOrigin_Requested::Inst            0                       # Table walker requests started/completed, data/inst
system.cpu.istage2_mmu.stage2_tlb.walker.walkRequestOrigin_Requested::total            0                       # Table walker requests started/completed, data/inst
system.cpu.istage2_mmu.stage2_tlb.walker.walkRequestOrigin_Completed::Data            0                       # Table walker requests started/completed, data/inst
system.cpu.istage2_mmu.stage2_tlb.walker.walkRequestOrigin_Completed::Inst            0                       # Table walker requests started/completed, data/inst
system.cpu.istage2_mmu.stage2_tlb.walker.walkRequestOrigin_Completed::total            0                       # Table walker requests started/completed, data/inst
system.cpu.istage2_mmu.stage2_tlb.walker.walkRequestOrigin::total            0                       # Table walker requests started/completed, data/inst
system.cpu.istage2_mmu.stage2_tlb.inst_hits            0                       # ITB inst hits
system.cpu.istage2_mmu.stage2_tlb.inst_misses            0                       # ITB inst misses
system.cpu.istage2_mmu.stage2_tlb.read_hits            0                       # DTB read hits
system.cpu.istage2_mmu.stage2_tlb.read_misses            0                       # DTB read misses
system.cpu.istage2_mmu.stage2_tlb.write_hits            0                       # DTB write hits
system.cpu.istage2_mmu.stage2_tlb.write_misses            0                       # DTB write misses
system.cpu.istage2_mmu.stage2_tlb.flush_tlb            0                       # Number of times complete TLB was flushed
system.cpu.istage2_mmu.stage2_tlb.flush_tlb_mva            0                       # Number of times TLB was flushed by MVA
system.cpu.istage2_mmu.stage2_tlb.flush_tlb_mva_asid            0                       # Number of times TLB was flushed by MVA & ASID
system.cpu.istage2_mmu.stage2_tlb.flush_tlb_asid            0                       # Number of times TLB was flushed by ASID
system.cpu.istage2_mmu.stage2_tlb.flush_entries            0                       # Number of entries that have been flushed from TLB
system.cpu.istage2_mmu.stage2_tlb.align_faults            0                       # Number of TLB faults due to alignment restrictions
system.cpu.istage2_mmu.stage2_tlb.prefetch_faults            0                       # Number of TLB faults due to prefetch
system.cpu.istage2_mmu.stage2_tlb.domain_faults            0                       # Number of TLB faults due to domain restrictions
system.cpu.istage2_mmu.stage2_tlb.perms_faults            0                       # Number of TLB faults due to permissions restrictions
system.cpu.istage2_mmu.stage2_tlb.read_accesses            0                       # DTB read accesses
system.cpu.istage2_mmu.stage2_tlb.write_accesses            0                       # DTB write accesses
system.cpu.istage2_mmu.stage2_tlb.inst_accesses            0                       # ITB inst accesses
system.cpu.istage2_mmu.stage2_tlb.hits              0                       # DTB hits
system.cpu.istage2_mmu.stage2_tlb.misses            0                       # DTB misses
system.cpu.istage2_mmu.stage2_tlb.accesses            0                       # DTB accesses
system.cpu.itb.walker.pwrStateResidencyTicks::UNDEFINED 100940829500                       # Cumulative time (in ticks) in various power states
system.cpu.itb.walker.walks                         0                       # Table walker walks requested
system.cpu.itb.walker.walkRequestOrigin_Requested::Data            0                       # Table walker requests started/completed, data/inst
system.cpu.itb.walker.walkRequestOrigin_Requested::Inst            0                       # Table walker requests started/completed, data/inst
system.cpu.itb.walker.walkRequestOrigin_Requested::total            0                       # Table walker requests started/completed, data/inst
system.cpu.itb.walker.walkRequestOrigin_Completed::Data            0                       # Table walker requests started/completed, data/inst
system.cpu.itb.walker.walkRequestOrigin_Completed::Inst            0                       # Table walker requests started/completed, data/inst
system.cpu.itb.walker.walkRequestOrigin_Completed::total            0                       # Table walker requests started/completed, data/inst
system.cpu.itb.walker.walkRequestOrigin::total            0                       # Table walker requests started/completed, data/inst
system.cpu.itb.inst_hits                            0                       # ITB inst hits
system.cpu.itb.inst_misses                          0                       # ITB inst misses
system.cpu.itb.read_hits                            0                       # DTB read hits
system.cpu.itb.read_misses                          0                       # DTB read misses
system.cpu.itb.write_hits                           0                       # DTB write hits
system.cpu.itb.write_misses                         0                       # DTB write misses
system.cpu.itb.flush_tlb                            0                       # Number of times complete TLB was flushed
system.cpu.itb.flush_tlb_mva                        0                       # Number of times TLB was flushed by MVA
system.cpu.itb.flush_tlb_mva_asid                   0                       # Number of times TLB was flushed by MVA & ASID
system.cpu.itb.flush_tlb_asid                       0                       # Number of times TLB was flushed by ASID
system.cpu.itb.flush_entries                        0                       # Number of entries that have been flushed from TLB
system.cpu.itb.align_faults                         0                       # Number of TLB faults due to alignment restrictions
system.cpu.itb.prefetch_faults                      0                       # Number of TLB faults due to prefetch
system.cpu.itb.domain_faults                        0                       # Number of TLB faults due to domain restrictions
system.cpu.itb.perms_faults                         0                       # Number of TLB faults due to permissions restrictions
system.cpu.itb.read_accesses                        0                       # DTB read accesses
system.cpu.itb.write_accesses                       0                       # DTB write accesses
system.cpu.itb.inst_accesses                        0                       # ITB inst accesses
system.cpu.itb.hits                                 0                       # DTB hits
system.cpu.itb.misses                               0                       # DTB misses
system.cpu.itb.accesses                             0                       # DTB accesses
system.cpu.workload.numSyscalls                    16                       # Number of system calls
system.cpu.pwrStateResidencyTicks::ON    100940829500                       # Cumulative time (in ticks) in various power states
system.cpu.numCycles                        201881660                       # number of cpu cycles simulated
system.cpu.numWorkItemsStarted                      0                       # number of work items this cpu started
system.cpu.numWorkItemsCompleted                    0                       # number of work items this cpu completed
system.cpu.fetch.icacheStallCycles             323236                       # Number of cycles fetch is stalled on an Icache miss
system.cpu.fetch.Insts                      411233469                       # Number of instructions fetch has processed
system.cpu.fetch.Branches                    50258576                       # Number of branches that fetch encountered
system.cpu.fetch.predictedBranches           41116469                       # Number of branches that fetch has predicted taken
system.cpu.fetch.Cycles                     201103926                       # Number of cycles fetch has run and was not squashing or blocked
system.cpu.fetch.SquashCycles                  564502                       # Number of cycles fetch has spent squashing
system.cpu.fetch.MiscStallCycles                  741                       # Number of cycles fetch has spent waiting on interrupts, or bad addresses, or out of MSHRs
system.cpu.fetch.PendingTrapStallCycles           315                       # Number of stall cycles due to pending traps
system.cpu.fetch.IcacheWaitRetryStallCycles         1286                       # Number of stall cycles due to full MSHR
system.cpu.fetch.CacheLines                 121094042                       # Number of cache lines fetched
system.cpu.fetch.IcacheSquashes                  1409                       # Number of outstanding Icache misses that were squashed
system.cpu.fetch.rateDist::samples          201711755                       # Number of instructions fetched each cycle (Total)
system.cpu.fetch.rateDist::mean              2.125939                       # Number of instructions fetched each cycle (Total)
system.cpu.fetch.rateDist::stdev             1.028418                       # Number of instructions fetched each cycle (Total)
system.cpu.fetch.rateDist::underflows               0      0.00%      0.00% # Number of instructions fetched each cycle (Total)
system.cpu.fetch.rateDist::0                  7908304      3.92%      3.92% # Number of instructions fetched each cycle (Total)
system.cpu.fetch.rateDist::1                 71842649     35.62%     39.54% # Number of instructions fetched each cycle (Total)
system.cpu.fetch.rateDist::2                  8898211      4.41%     43.95% # Number of instructions fetched each cycle (Total)
system.cpu.fetch.rateDist::3                113062591     56.05%    100.00% # Number of instructions fetched each cycle (Total)
system.cpu.fetch.rateDist::overflows                0      0.00%    100.00% # Number of instructions fetched each cycle (Total)
system.cpu.fetch.rateDist::min_value                0                       # Number of instructions fetched each cycle (Total)
system.cpu.fetch.rateDist::max_value                3                       # Number of instructions fetched each cycle (Total)
system.cpu.fetch.rateDist::total            201711755                       # Number of instructions fetched each cycle (Total)
system.cpu.fetch.branchRate                  0.248951                       # Number of branch fetches per cycle
system.cpu.fetch.rate                        2.037003                       # Number of inst fetches per cycle
system.cpu.decode.IdleCycles                  9098180                       # Number of cycles decode is idle
system.cpu.decode.BlockedCycles              17306688                       # Number of cycles decode is blocked
system.cpu.decode.RunCycles                 163436416                       # Number of cycles decode is running
system.cpu.decode.UnblockCycles              11651189                       # Number of cycles decode is unblocking
system.cpu.decode.SquashCycles                 219282                       # Number of cycles decode is squashing
system.cpu.decode.BranchResolved             37945664                       # Number of times decode resolved a branch
system.cpu.decode.BranchMispred                 63135                       # Number of times decode detected a branch misprediction
system.cpu.decode.DecodedInsts              424464376                       # Number of instructions handled by decode
system.cpu.decode.SquashedInsts               1162145                       # Number of squashed instructions handled by decode
system.cpu.rename.SquashCycles                 219282                       # Number of cycles rename is squashing
system.cpu.rename.IdleCycles                 16466076                       # Number of cycles rename is idle
system.cpu.rename.BlockCycles                 1207218                       # Number of cycles rename is blocking
system.cpu.rename.serializeStallCycles        2452204                       # count of cycles rename stalled for serializing inst
system.cpu.rename.RunCycles                 167538952                       # Number of cycles rename is running
system.cpu.rename.UnblockCycles              13828023                       # Number of cycles rename is unblocking
system.cpu.rename.RenamedInsts              423550254                       # Number of instructions processed by rename
system.cpu.rename.SquashedInsts                440016                       # Number of squashed instructions processed by rename
system.cpu.rename.ROBFullEvents               4431920                       # Number of times rename has blocked due to ROB full
system.cpu.rename.IQFullEvents                4073704                       # Number of times rename has blocked due to IQ full
system.cpu.rename.LQFullEvents                    632                       # Number of times rename has blocked due to LQ full
system.cpu.rename.SQFullEvents                  41520                       # Number of times rename has blocked due to SQ full
system.cpu.rename.RenamedOperands           582523173                       # Number of destination operands rename has renamed
system.cpu.rename.RenameLookups            2126670146                       # Number of register rename lookups that rename has made
system.cpu.rename.int_rename_lookups        713073306                       # Number of integer rename lookups
system.cpu.rename.fp_rename_lookups                16                       # Number of floating rename lookups
system.cpu.rename.CommittedMaps             576947938                       # Number of HB maps that are committed
system.cpu.rename.UndoneMaps                  5575234                       # Number of HB maps that are undone due to squashing
system.cpu.rename.serializingInsts             155330                       # count of serializing insts renamed
system.cpu.rename.tempSerializingInsts          31563                       # count of temporary serializing insts renamed
system.cpu.rename.skidInsts                  24493016                       # count of insts added to the skid buffer
system.cpu.memDep0.insertedLoads             37649869                       # Number of loads inserted to the mem dependence unit.
system.cpu.memDep0.insertedStores            38053936                       # Number of stores inserted to the mem dependence unit.
system.cpu.memDep0.conflictingLoads            482632                       # Number of conflicting loads.
system.cpu.memDep0.conflictingStores           470939                       # Number of conflicting stores.
system.cpu.iq.iqInstsAdded                  422979492                       # Number of instructions added to the IQ (excludes non-spec)
system.cpu.iq.iqNonSpecInstsAdded               32145                       # Number of non-speculative instructions added to the IQ
system.cpu.iq.iqInstsIssued                 421802795                       # Number of instructions issued
system.cpu.iq.iqSquashedInstsIssued            346784                       # Number of squashed instructions issued
system.cpu.iq.iqSquashedInstsExamined         3952123                       # Number of squashed instructions iterated over during squash; mainly for profiling
system.cpu.iq.iqSquashedOperandsExamined     11799293                       # Number of squashed operands that are examined and possibly removed from graph
system.cpu.iq.iqSquashedNonSpecRemoved             37                       # Number of squashed non-spec instructions that were removed
system.cpu.iq.issued_per_cycle::samples     201711755                       # Number of insts issued each cycle
system.cpu.iq.issued_per_cycle::mean         2.091117                       # Number of insts issued each cycle
system.cpu.iq.issued_per_cycle::stdev        0.717021                       # Number of insts issued each cycle
system.cpu.iq.issued_per_cycle::underflows            0      0.00%      0.00% # Number of insts issued each cycle
system.cpu.iq.issued_per_cycle::0             5410312      2.68%      2.68% # Number of insts issued each cycle
system.cpu.iq.issued_per_cycle::1            25626825     12.70%     15.39% # Number of insts issued each cycle
system.cpu.iq.issued_per_cycle::2           117489790     58.25%     73.63% # Number of insts issued each cycle
system.cpu.iq.issued_per_cycle::3            51542922     25.55%     99.19% # Number of insts issued each cycle
system.cpu.iq.issued_per_cycle::4             1641906      0.81%    100.00% # Number of insts issued each cycle
system.cpu.iq.issued_per_cycle::5                   0      0.00%    100.00% # Number of insts issued each cycle
system.cpu.iq.issued_per_cycle::6                   0      0.00%    100.00% # Number of insts issued each cycle
system.cpu.iq.issued_per_cycle::7                   0      0.00%    100.00% # Number of insts issued each cycle
system.cpu.iq.issued_per_cycle::8                   0      0.00%    100.00% # Number of insts issued each cycle
system.cpu.iq.issued_per_cycle::overflows            0      0.00%    100.00% # Number of insts issued each cycle
system.cpu.iq.issued_per_cycle::min_value            0                       # Number of insts issued each cycle
system.cpu.iq.issued_per_cycle::max_value            4                       # Number of insts issued each cycle
system.cpu.iq.issued_per_cycle::total       201711755                       # Number of insts issued each cycle
system.cpu.iq.fu_full::No_OpClass                   0      0.00%      0.00% # attempts to use FU when none available
system.cpu.iq.fu_full::IntAlu                74493231     86.66%     86.66% # attempts to use FU when none available
system.cpu.iq.fu_full::IntMult                     21      0.00%     86.66% # attempts to use FU when none available
system.cpu.iq.fu_full::IntDiv                       0      0.00%     86.66% # attempts to use FU when none available
system.cpu.iq.fu_full::FloatAdd                     0      0.00%     86.66% # attempts to use FU when none available
system.cpu.iq.fu_full::FloatCmp                     0      0.00%     86.66% # attempts to use FU when none available
system.cpu.iq.fu_full::FloatCvt                     0      0.00%     86.66% # attempts to use FU when none available
system.cpu.iq.fu_full::FloatMult                    0      0.00%     86.66% # attempts to use FU when none available
system.cpu.iq.fu_full::FloatMultAcc                 0      0.00%     86.66% # attempts to use FU when none available
system.cpu.iq.fu_full::FloatDiv                     0      0.00%     86.66% # attempts to use FU when none available
system.cpu.iq.fu_full::FloatMisc                    0      0.00%     86.66% # attempts to use FU when none available
system.cpu.iq.fu_full::FloatSqrt                    0      0.00%     86.66% # attempts to use FU when none available
system.cpu.iq.fu_full::SimdAdd                      0      0.00%     86.66% # attempts to use FU when none available
system.cpu.iq.fu_full::SimdAddAcc                   0      0.00%     86.66% # attempts to use FU when none available
system.cpu.iq.fu_full::SimdAlu                      0      0.00%     86.66% # attempts to use FU when none available
system.cpu.iq.fu_full::SimdCmp                      0      0.00%     86.66% # attempts to use FU when none available
system.cpu.iq.fu_full::SimdCvt                      0      0.00%     86.66% # attempts to use FU when none available
system.cpu.iq.fu_full::SimdMisc                     0      0.00%     86.66% # attempts to use FU when none available
system.cpu.iq.fu_full::SimdMult                     0      0.00%     86.66% # attempts to use FU when none available
system.cpu.iq.fu_full::SimdMultAcc                  0      0.00%     86.66% # attempts to use FU when none available
system.cpu.iq.fu_full::SimdShift                    0      0.00%     86.66% # attempts to use FU when none available
system.cpu.iq.fu_full::SimdShiftAcc                 0      0.00%     86.66% # attempts to use FU when none available
system.cpu.iq.fu_full::SimdSqrt                     0      0.00%     86.66% # attempts to use FU when none available
system.cpu.iq.fu_full::SimdFloatAdd                 0      0.00%     86.66% # attempts to use FU when none available
system.cpu.iq.fu_full::SimdFloatAlu                 0      0.00%     86.66% # attempts to use FU when none available
system.cpu.iq.fu_full::SimdFloatCmp                 0      0.00%     86.66% # attempts to use FU when none available
system.cpu.iq.fu_full::SimdFloatCvt                 0      0.00%     86.66% # attempts to use FU when none available
system.cpu.iq.fu_full::SimdFloatDiv                 0      0.00%     86.66% # attempts to use FU when none available
system.cpu.iq.fu_full::SimdFloatMisc                0      0.00%     86.66% # attempts to use FU when none available
system.cpu.iq.fu_full::SimdFloatMult                0      0.00%     86.66% # attempts to use FU when none available
system.cpu.iq.fu_full::SimdFloatMultAcc             0      0.00%     86.66% # attempts to use FU when none available
system.cpu.iq.fu_full::SimdFloatSqrt                0      0.00%     86.66% # attempts to use FU when none available
system.cpu.iq.fu_full::MemRead                5610409      6.53%     93.19% # attempts to use FU when none available
system.cpu.iq.fu_full::MemWrite               5853852      6.81%    100.00% # attempts to use FU when none available
system.cpu.iq.fu_full::FloatMemRead                 0      0.00%    100.00% # attempts to use FU when none available
system.cpu.iq.fu_full::FloatMemWrite               14      0.00%    100.00% # attempts to use FU when none available
system.cpu.iq.fu_full::IprAccess                    0      0.00%    100.00% # attempts to use FU when none available
system.cpu.iq.fu_full::InstPrefetch                 0      0.00%    100.00% # attempts to use FU when none available
system.cpu.iq.FU_type_0::No_OpClass                 9      0.00%      0.00% # Type of FU issued
system.cpu.iq.FU_type_0::IntAlu             343579253     81.45%     81.45% # Type of FU issued
system.cpu.iq.FU_type_0::IntMult              1597454      0.38%     81.83% # Type of FU issued
system.cpu.iq.FU_type_0::IntDiv                     0      0.00%     81.83% # Type of FU issued
system.cpu.iq.FU_type_0::FloatAdd                   0      0.00%     81.83% # Type of FU issued
system.cpu.iq.FU_type_0::FloatCmp                   0      0.00%     81.83% # Type of FU issued
system.cpu.iq.FU_type_0::FloatCvt                   0      0.00%     81.83% # Type of FU issued
system.cpu.iq.FU_type_0::FloatMult                  0      0.00%     81.83% # Type of FU issued
system.cpu.iq.FU_type_0::FloatMultAcc               0      0.00%     81.83% # Type of FU issued
system.cpu.iq.FU_type_0::FloatDiv                   0      0.00%     81.83% # Type of FU issued
system.cpu.iq.FU_type_0::FloatMisc                  0      0.00%     81.83% # Type of FU issued
system.cpu.iq.FU_type_0::FloatSqrt                  0      0.00%     81.83% # Type of FU issued
system.cpu.iq.FU_type_0::SimdAdd                    0      0.00%     81.83% # Type of FU issued
system.cpu.iq.FU_type_0::SimdAddAcc                 0      0.00%     81.83% # Type of FU issued
system.cpu.iq.FU_type_0::SimdAlu                    0      0.00%     81.83% # Type of FU issued
system.cpu.iq.FU_type_0::SimdCmp                    0      0.00%     81.83% # Type of FU issued
system.cpu.iq.FU_type_0::SimdCvt                    0      0.00%     81.83% # Type of FU issued
system.cpu.iq.FU_type_0::SimdMisc                   0      0.00%     81.83% # Type of FU issued
system.cpu.iq.FU_type_0::SimdMult                   0      0.00%     81.83% # Type of FU issued
system.cpu.iq.FU_type_0::SimdMultAcc                0      0.00%     81.83% # Type of FU issued
system.cpu.iq.FU_type_0::SimdShift                  0      0.00%     81.83% # Type of FU issued
system.cpu.iq.FU_type_0::SimdShiftAcc               0      0.00%     81.83% # Type of FU issued
system.cpu.iq.FU_type_0::SimdSqrt                   0      0.00%     81.83% # Type of FU issued
system.cpu.iq.FU_type_0::SimdFloatAdd               0      0.00%     81.83% # Type of FU issued
system.cpu.iq.FU_type_0::SimdFloatAlu               0      0.00%     81.83% # Type of FU issued
system.cpu.iq.FU_type_0::SimdFloatCmp               0      0.00%     81.83% # Type of FU issued
system.cpu.iq.FU_type_0::SimdFloatCvt               0      0.00%     81.83% # Type of FU issued
system.cpu.iq.FU_type_0::SimdFloatDiv               0      0.00%     81.83% # Type of FU issued
system.cpu.iq.FU_type_0::SimdFloatMisc         154681      0.04%     81.87% # Type of FU issued
system.cpu.iq.FU_type_0::SimdFloatMult              0      0.00%     81.87% # Type of FU issued
system.cpu.iq.FU_type_0::SimdFloatMultAcc            0      0.00%     81.87% # Type of FU issued
system.cpu.iq.FU_type_0::SimdFloatSqrt              0      0.00%     81.87% # Type of FU issued
system.cpu.iq.FU_type_0::MemRead             38594111      9.15%     91.02% # Type of FU issued
system.cpu.iq.FU_type_0::MemWrite            37877271      8.98%    100.00% # Type of FU issued
system.cpu.iq.FU_type_0::FloatMemRead               0      0.00%    100.00% # Type of FU issued
system.cpu.iq.FU_type_0::FloatMemWrite             16      0.00%    100.00% # Type of FU issued
system.cpu.iq.FU_type_0::IprAccess                  0      0.00%    100.00% # Type of FU issued
system.cpu.iq.FU_type_0::InstPrefetch               0      0.00%    100.00% # Type of FU issued
system.cpu.iq.FU_type_0::total              421802795                       # Type of FU issued
system.cpu.iq.rate                           2.089357                       # Inst issue rate
system.cpu.iq.fu_busy_cnt                    85957527                       # FU busy when requested
system.cpu.iq.fu_busy_rate                   0.203786                       # FU busy rate (busy events/executed inst)
system.cpu.iq.int_inst_queue_reads         1131621610                       # Number of integer instruction queue reads
system.cpu.iq.int_inst_queue_writes         426964632                       # Number of integer instruction queue writes
system.cpu.iq.int_inst_queue_wakeup_accesses    420326403                       # Number of integer instruction queue wakeup accesses
system.cpu.iq.fp_inst_queue_reads                  46                       # Number of floating instruction queue reads
system.cpu.iq.fp_inst_queue_writes                 16                       # Number of floating instruction queue writes
system.cpu.iq.fp_inst_queue_wakeup_accesses           16                       # Number of floating instruction queue wakeup accesses
system.cpu.iq.vec_inst_queue_reads                  0                       # Number of vector instruction queue reads
system.cpu.iq.vec_inst_queue_writes                 0                       # Number of vector instruction queue writes
system.cpu.iq.vec_inst_queue_wakeup_accesses            0                       # Number of vector instruction queue wakeup accesses
system.cpu.iq.int_alu_accesses              507760283                       # Number of integer alu accesses
system.cpu.iq.fp_alu_accesses                      30                       # Number of floating point alu accesses
system.cpu.iq.vec_alu_accesses                      0                       # Number of vector alu accesses
system.cpu.iew.lsq.thread0.forwLoads           445163                       # Number of loads that had data forwarded from stores
system.cpu.iew.lsq.thread0.invAddrLoads             0                       # Number of loads ignored due to an invalid address
system.cpu.iew.lsq.thread0.squashedLoads       461160                       # Number of loads squashed
system.cpu.iew.lsq.thread0.ignoredResponses          130                       # Number of memory responses ignored because the instruction is squashed
system.cpu.iew.lsq.thread0.memOrderViolation          888                       # Number of memory ordering violations
system.cpu.iew.lsq.thread0.squashedStores       351795                       # Number of stores squashed
system.cpu.iew.lsq.thread0.invAddrSwpfs             0                       # Number of software prefetches ignored due to an invalid address
system.cpu.iew.lsq.thread0.blockedLoads             0                       # Number of blocked loads due to partial load-store forwarding
system.cpu.iew.lsq.thread0.rescheduledLoads       978089                       # Number of loads that were rescheduled
system.cpu.iew.lsq.thread0.cacheBlocked          2072                       # Number of times an access to memory failed due to the cache being blocked
system.cpu.iew.iewIdleCycles                        0                       # Number of cycles IEW is idle
system.cpu.iew.iewSquashCycles                 219282                       # Number of cycles IEW is squashing
system.cpu.iew.iewBlockCycles                  355249                       # Number of cycles IEW is blocking
system.cpu.iew.iewUnblockCycles                   374                       # Number of cycles IEW is unblocking
system.cpu.iew.iewDispatchedInsts           423011642                       # Number of instructions dispatched to IQ
system.cpu.iew.iewDispSquashedInsts                 0                       # Number of squashed instructions skipped by dispatch
system.cpu.iew.iewDispLoadInsts              37649869                       # Number of dispatched load instructions
system.cpu.iew.iewDispStoreInsts             38053936                       # Number of dispatched store instructions
system.cpu.iew.iewDispNonSpecInsts              31561                       # Number of dispatched non-speculative instructions
system.cpu.iew.iewIQFullEvents                     97                       # Number of times the IQ has become full, causing a stall
system.cpu.iew.iewLSQFullEvents                   166                       # Number of times the LSQ has become full, causing a stall
system.cpu.iew.memOrderViolationEvents            888                       # Number of memory order violations
system.cpu.iew.predictedTakenIncorrect         163224                       # Number of branches that were predicted taken incorrectly
system.cpu.iew.predictedNotTakenIncorrect        33403                       # Number of branches that were predicted not taken incorrectly
system.cpu.iew.branchMispredicts               196627                       # Number of branch mispredicts detected at execute
system.cpu.iew.iewExecutedInsts             421461411                       # Number of executed instructions
system.cpu.iew.iewExecLoadInsts              38452755                       # Number of load instructions executed
system.cpu.iew.iewExecSquashedInsts            341384                       # Number of squashed instructions skipped in execute
system.cpu.iew.exec_swp                             0                       # number of swp insts executed
system.cpu.iew.exec_nop                             5                       # number of nop insts executed
system.cpu.iew.exec_refs                     76266117                       # number of memory reference insts executed
system.cpu.iew.exec_branches                 49109126                       # Number of branches executed
system.cpu.iew.exec_stores                   37813362                       # Number of stores executed
system.cpu.iew.exec_rate                     2.087666                       # Inst execution rate
system.cpu.iew.wb_sent                      420380169                       # cumulative count of insts sent to commit
system.cpu.iew.wb_count                     420326419                       # cumulative count of insts written-back
system.cpu.iew.wb_producers                 320288786                       # num instructions producing a value
system.cpu.iew.wb_consumers                 797256797                       # num instructions consuming a value
system.cpu.iew.wb_rate                       2.082044                       # insts written-back per cycle
system.cpu.iew.wb_fanout                     0.401739                       # average fanout of values written-back
system.cpu.commit.commitSquashedInsts         3529223                       # The number of squashed insts skipped by commit
system.cpu.commit.commitNonSpecStalls           32108                       # The number of times commit has been forced to stall to communicate backwards
system.cpu.commit.branchMispredicts            187492                       # The number of times a branch was mispredicted
system.cpu.commit.committed_per_cycle::samples    201153739                       # Number of insts commited each cycle
system.cpu.commit.committed_per_cycle::mean     2.083280                       # Number of insts commited each cycle
system.cpu.commit.committed_per_cycle::stdev     2.074619                       # Number of insts commited each cycle
system.cpu.commit.committed_per_cycle::underflows            0      0.00%      0.00% # Number of insts commited each cycle
system.cpu.commit.committed_per_cycle::0     37454895     18.62%     18.62% # Number of insts commited each cycle
system.cpu.commit.committed_per_cycle::1     58545573     29.10%     47.72% # Number of insts commited each cycle
system.cpu.commit.committed_per_cycle::2     61206147     30.43%     78.15% # Number of insts commited each cycle
system.cpu.commit.committed_per_cycle::3      8327609      4.14%     82.29% # Number of insts commited each cycle
system.cpu.commit.committed_per_cycle::4      4621631      2.30%     84.59% # Number of insts commited each cycle
system.cpu.commit.committed_per_cycle::5     16764200      8.33%     92.92% # Number of insts commited each cycle
system.cpu.commit.committed_per_cycle::6      1169811      0.58%     93.51% # Number of insts commited each cycle
system.cpu.commit.committed_per_cycle::7       718555      0.36%     93.86% # Number of insts commited each cycle
system.cpu.commit.committed_per_cycle::8     12345318      6.14%    100.00% # Number of insts commited each cycle
system.cpu.commit.committed_per_cycle::overflows            0      0.00%    100.00% # Number of insts commited each cycle
system.cpu.commit.committed_per_cycle::min_value            0                       # Number of insts commited each cycle
system.cpu.commit.committed_per_cycle::max_value            8                       # Number of insts commited each cycle
system.cpu.commit.committed_per_cycle::total    201153739                       # Number of insts commited each cycle
system.cpu.commit.committedInsts            402752520                       # Number of instructions committed
system.cpu.commit.committedOps              419059513                       # Number of ops (including micro ops) committed
system.cpu.commit.swp_count                         0                       # Number of s/w prefetches committed
system.cpu.commit.refs                       74890850                       # Number of memory references committed
system.cpu.commit.loads                      37188709                       # Number of loads committed
system.cpu.commit.membars                         584                       # Number of memory barriers committed
system.cpu.commit.branches                   48961079                       # Number of branches committed
system.cpu.commit.vec_insts                         0                       # Number of committed Vector instructions.
system.cpu.commit.fp_insts                         16                       # Number of committed floating point instructions.
system.cpu.commit.int_insts                 376724794                       # Number of committed integer instructions.
system.cpu.commit.function_calls              3239999                       # Number of function calls committed.
system.cpu.commit.op_class_0::No_OpClass            0      0.00%      0.00% # Class of committed instruction
system.cpu.commit.op_class_0::IntAlu        342417093     81.71%     81.71% # Class of committed instruction
system.cpu.commit.op_class_0::IntMult         1596889      0.38%     82.09% # Class of committed instruction
system.cpu.commit.op_class_0::IntDiv                0      0.00%     82.09% # Class of committed instruction
system.cpu.commit.op_class_0::FloatAdd              0      0.00%     82.09% # Class of committed instruction
system.cpu.commit.op_class_0::FloatCmp              0      0.00%     82.09% # Class of committed instruction
system.cpu.commit.op_class_0::FloatCvt              0      0.00%     82.09% # Class of committed instruction
system.cpu.commit.op_class_0::FloatMult             0      0.00%     82.09% # Class of committed instruction
system.cpu.commit.op_class_0::FloatMultAcc            0      0.00%     82.09% # Class of committed instruction
system.cpu.commit.op_class_0::FloatDiv              0      0.00%     82.09% # Class of committed instruction
system.cpu.commit.op_class_0::FloatMisc             0      0.00%     82.09% # Class of committed instruction
system.cpu.commit.op_class_0::FloatSqrt             0      0.00%     82.09% # Class of committed instruction
system.cpu.commit.op_class_0::SimdAdd               0      0.00%     82.09% # Class of committed instruction
system.cpu.commit.op_class_0::SimdAddAcc            0      0.00%     82.09% # Class of committed instruction
system.cpu.commit.op_class_0::SimdAlu               0      0.00%     82.09% # Class of committed instruction
system.cpu.commit.op_class_0::SimdCmp               0      0.00%     82.09% # Class of committed instruction
system.cpu.commit.op_class_0::SimdCvt               0      0.00%     82.09% # Class of committed instruction
system.cpu.commit.op_class_0::SimdMisc              0      0.00%     82.09% # Class of committed instruction
system.cpu.commit.op_class_0::SimdMult              0      0.00%     82.09% # Class of committed instruction
system.cpu.commit.op_class_0::SimdMultAcc            0      0.00%     82.09% # Class of committed instruction
system.cpu.commit.op_class_0::SimdShift             0      0.00%     82.09% # Class of committed instruction
system.cpu.commit.op_class_0::SimdShiftAcc            0      0.00%     82.09% # Class of committed instruction
system.cpu.commit.op_class_0::SimdSqrt              0      0.00%     82.09% # Class of committed instruction
system.cpu.commit.op_class_0::SimdFloatAdd            0      0.00%     82.09% # Class of committed instruction
system.cpu.commit.op_class_0::SimdFloatAlu            0      0.00%     82.09% # Class of committed instruction
system.cpu.commit.op_class_0::SimdFloatCmp            0      0.00%     82.09% # Class of committed instruction
system.cpu.commit.op_class_0::SimdFloatCvt            0      0.00%     82.09% # Class of committed instruction
system.cpu.commit.op_class_0::SimdFloatDiv            0      0.00%     82.09% # Class of committed instruction
system.cpu.commit.op_class_0::SimdFloatMisc       154681      0.04%     82.13% # Class of committed instruction
[...]
system.l2.demand_miss_rate::cpu.data         0.082782                       # miss rate for demand accesses
system.l2.demand_miss_rate::total            0.139039                       # miss rate for demand accesses
system.l2.overall_miss_rate::cpu.inst        0.220456                       # miss rate for overall accesses
system.l2.overall_miss_rate::cpu.data        0.082782                       # miss rate for overall accesses
system.l2.overall_miss_rate::total           0.139039                       # miss rate for overall accesses
system.l2.ReadExReq_avg_miss_latency::cpu.data 113568.548387                       # average ReadExReq miss latency
system.l2.ReadExReq_avg_miss_latency::total 113568.548387                       # average ReadExReq miss latency
system.l2.ReadCleanReq_avg_miss_latency::cpu.inst 119212.569316                       # average ReadCleanReq miss latency
system.l2.ReadCleanReq_avg_miss_latency::total 119212.569316                       # average ReadCleanReq miss latency
system.l2.ReadSharedReq_avg_miss_latency::cpu.data 188440.732759                       # average ReadSharedReq miss latency
system.l2.ReadSharedReq_avg_miss_latency::total 188440.732759                       # average ReadSharedReq miss latency
system.l2.demand_avg_miss_latency::cpu.inst 119212.569316                       # average overall miss latency
system.l2.demand_avg_miss_latency::cpu.data 172651.360544                       # average overall miss latency
system.l2.demand_avg_miss_latency::total 138028.143713                       # average overall miss latency
system.l2.overall_avg_miss_latency::cpu.inst 119212.569316                       # average overall miss latency
system.l2.overall_avg_miss_latency::cpu.data 172651.360544                       # average overall miss latency
system.l2.overall_avg_miss_latency::total 138028.143713                       # average overall miss latency
system.l2.blocked_cycles::no_mshrs                  0                       # number of cycles access was blocked
system.l2.blocked_cycles::no_targets                0                       # number of cycles access was blocked
system.l2.blocked::no_mshrs                         0                       # number of cycles access was blocked
system.l2.blocked::no_targets                       0                       # number of cycles access was blocked
system.l2.avg_blocked_cycles::no_mshrs            nan                       # average number of cycles each access was blocked
system.l2.avg_blocked_cycles::no_targets          nan                       # average number of cycles each access was blocked
system.l2.ReadExReq_mshr_hits::cpu.data            29                       # number of ReadExReq MSHR hits
system.l2.ReadExReq_mshr_hits::total               29                       # number of ReadExReq MSHR hits
system.l2.ReadCleanReq_mshr_hits::cpu.inst            1                       # number of ReadCleanReq MSHR hits
system.l2.ReadCleanReq_mshr_hits::total             1                       # number of ReadCleanReq MSHR hits
system.l2.ReadSharedReq_mshr_hits::cpu.data            7                       # number of ReadSharedReq MSHR hits
system.l2.ReadSharedReq_mshr_hits::total            7                       # number of ReadSharedReq MSHR hits
system.l2.demand_mshr_hits::cpu.inst                1                       # number of demand (read+write) MSHR hits
system.l2.demand_mshr_hits::cpu.data               36                       # number of demand (read+write) MSHR hits
system.l2.demand_mshr_hits::total                  37                       # number of demand (read+write) MSHR hits
system.l2.overall_mshr_hits::cpu.inst               1                       # number of overall MSHR hits
system.l2.overall_mshr_hits::cpu.data              36                       # number of overall MSHR hits
system.l2.overall_mshr_hits::total                 37                       # number of overall MSHR hits
system.l2.HardPFReq_mshr_misses::l2.prefetcher         3619                       # number of HardPFReq MSHR misses
system.l2.HardPFReq_mshr_misses::total           3619                       # number of HardPFReq MSHR misses
system.l2.ReadExReq_mshr_misses::cpu.data           95                       # number of ReadExReq MSHR misses
system.l2.ReadExReq_mshr_misses::total             95                       # number of ReadExReq MSHR misses
system.l2.ReadCleanReq_mshr_misses::cpu.inst         1081                       # number of ReadCleanReq MSHR misses
system.l2.ReadCleanReq_mshr_misses::total         1081                       # number of ReadCleanReq MSHR misses
system.l2.ReadSharedReq_mshr_misses::cpu.data          457                       # number of ReadSharedReq MSHR misses
system.l2.ReadSharedReq_mshr_misses::total          457                       # number of ReadSharedReq MSHR misses
system.l2.demand_mshr_misses::cpu.inst           1081                       # number of demand (read+write) MSHR misses
system.l2.demand_mshr_misses::cpu.data            552                       # number of demand (read+write) MSHR misses
system.l2.demand_mshr_misses::total              1633                       # number of demand (read+write) MSHR misses
system.l2.overall_mshr_misses::cpu.inst          1081                       # number of overall MSHR misses
system.l2.overall_mshr_misses::cpu.data           552                       # number of overall MSHR misses
system.l2.overall_mshr_misses::l2.prefetcher         3619                       # number of overall MSHR misses
system.l2.overall_mshr_misses::total             5252                       # number of overall MSHR misses
system.l2.HardPFReq_mshr_miss_latency::l2.prefetcher     95271413                       # number of HardPFReq MSHR miss cycles
system.l2.HardPFReq_mshr_miss_latency::total     95271413                       # number of HardPFReq MSHR miss cycles
system.l2.ReadExReq_mshr_miss_latency::cpu.data     12287500                       # number of ReadExReq MSHR miss cycles
system.l2.ReadExReq_mshr_miss_latency::total     12287500                       # number of ReadExReq MSHR miss cycles
system.l2.ReadCleanReq_mshr_miss_latency::cpu.inst    122436500                       # number of ReadCleanReq MSHR miss cycles
system.l2.ReadCleanReq_mshr_miss_latency::total    122436500                       # number of ReadCleanReq MSHR miss cycles
system.l2.ReadSharedReq_mshr_miss_latency::cpu.data     84261000                       # number of ReadSharedReq MSHR miss cycles
system.l2.ReadSharedReq_mshr_miss_latency::total     84261000                       # number of ReadSharedReq MSHR miss cycles
system.l2.demand_mshr_miss_latency::cpu.inst    122436500                       # number of demand (read+write) MSHR miss cycles
system.l2.demand_mshr_miss_latency::cpu.data     96548500                       # number of demand (read+write) MSHR miss cycles
system.l2.demand_mshr_miss_latency::total    218985000                       # number of demand (read+write) MSHR miss cycles
system.l2.overall_mshr_miss_latency::cpu.inst    122436500                       # number of overall MSHR miss cycles
system.l2.overall_mshr_miss_latency::cpu.data     96548500                       # number of overall MSHR miss cycles
system.l2.overall_mshr_miss_latency::l2.prefetcher     95271413                       # number of overall MSHR miss cycles
system.l2.overall_mshr_miss_latency::total    314256413                       # number of overall MSHR miss cycles
system.l2.HardPFReq_mshr_miss_rate::l2.prefetcher          inf                       # mshr miss rate for HardPFReq accesses
system.l2.HardPFReq_mshr_miss_rate::total          inf                       # mshr miss rate for HardPFReq accesses
system.l2.ReadExReq_mshr_miss_rate::cpu.data     0.025293                       # mshr miss rate for ReadExReq accesses
system.l2.ReadExReq_mshr_miss_rate::total     0.025293                       # mshr miss rate for ReadExReq accesses
system.l2.ReadCleanReq_mshr_miss_rate::cpu.inst     0.220253                       # mshr miss rate for ReadCleanReq accesses
system.l2.ReadCleanReq_mshr_miss_rate::total     0.220253                       # mshr miss rate for ReadCleanReq accesses
system.l2.ReadSharedReq_mshr_miss_rate::cpu.data     0.136540                       # mshr miss rate for ReadSharedReq accesses
system.l2.ReadSharedReq_mshr_miss_rate::total     0.136540                       # mshr miss rate for ReadSharedReq accesses
system.l2.demand_mshr_miss_rate::cpu.inst     0.220253                       # mshr miss rate for demand accesses
system.l2.demand_mshr_miss_rate::cpu.data     0.077714                       # mshr miss rate for demand accesses
system.l2.demand_mshr_miss_rate::total       0.135959                       # mshr miss rate for demand accesses
system.l2.overall_mshr_miss_rate::cpu.inst     0.220253                       # mshr miss rate for overall accesses
system.l2.overall_mshr_miss_rate::cpu.data     0.077714                       # mshr miss rate for overall accesses
system.l2.overall_mshr_miss_rate::l2.prefetcher          inf                       # mshr miss rate for overall accesses
system.l2.overall_mshr_miss_rate::total      0.437266                       # mshr miss rate for overall accesses
system.l2.HardPFReq_avg_mshr_miss_latency::l2.prefetcher 26325.342083                       # average HardPFReq mshr miss latency
system.l2.HardPFReq_avg_mshr_miss_latency::total 26325.342083                       # average HardPFReq mshr miss latency
system.l2.ReadExReq_avg_mshr_miss_latency::cpu.data 129342.105263                       # average ReadExReq mshr miss latency
system.l2.ReadExReq_avg_mshr_miss_latency::total 129342.105263                       # average ReadExReq mshr miss latency
system.l2.ReadCleanReq_avg_mshr_miss_latency::cpu.inst 113262.257169                       # average ReadCleanReq mshr miss latency
system.l2.ReadCleanReq_avg_mshr_miss_latency::total 113262.257169                       # average ReadCleanReq mshr miss latency
system.l2.ReadSharedReq_avg_mshr_miss_latency::cpu.data 184378.555799                       # average ReadSharedReq mshr miss latency
system.l2.ReadSharedReq_avg_mshr_miss_latency::total 184378.555799                       # average ReadSharedReq mshr miss latency
system.l2.demand_avg_mshr_miss_latency::cpu.inst 113262.257169                       # average overall mshr miss latency
system.l2.demand_avg_mshr_miss_latency::cpu.data 174906.702899                       # average overall mshr miss latency
system.l2.demand_avg_mshr_miss_latency::total 134099.816289                       # average overall mshr miss latency
system.l2.overall_avg_mshr_miss_latency::cpu.inst 113262.257169                       # average overall mshr miss latency
system.l2.overall_avg_mshr_miss_latency::cpu.data 174906.702899                       # average overall mshr miss latency
system.l2.overall_avg_mshr_miss_latency::l2.prefetcher 26325.342083                       # average overall mshr miss latency
system.l2.overall_avg_mshr_miss_latency::total 59835.569878                       # average overall mshr miss latency
system.membus.snoop_filter.tot_requests          3165                       # Total number of requests made to the snoop filter.
system.membus.snoop_filter.hit_single_requests          386                       # Number of requests hitting in the snoop filter with a single holder of the requested data.
system.membus.snoop_filter.hit_multi_requests            0                       # Number of requests hitting in the snoop filter with multiple (>1) holders of the requested data.
system.membus.snoop_filter.tot_snoops               0                       # Total number of snoops made to the snoop filter.
system.membus.snoop_filter.hit_single_snoops            0                       # Number of snoops hitting in the snoop filter with a single holder of the requested data.
system.membus.snoop_filter.hit_multi_snoops            0                       # Number of snoops hitting in the snoop filter with multiple (>1) holders of the requested data.
system.membus.pwrStateResidencyTicks::UNDEFINED 100940829500                       # Cumulative time (in ticks) in various power states
system.membus.trans_dist::ReadResp               3070                       # Transaction distribution
system.membus.trans_dist::ReadExReq                95                       # Transaction distribution
system.membus.trans_dist::ReadExResp               95                       # Transaction distribution
system.membus.trans_dist::ReadCleanReq           3070                       # Transaction distribution
system.membus.pkt_count_system.l2.mem_side::system.mem_ctrls.port         6330                       # Packet count per connected master and slave (bytes)
system.membus.pkt_count::total                   6330                       # Packet count per connected master and slave (bytes)
system.membus.pkt_size_system.l2.mem_side::system.mem_ctrls.port       202560                       # Cumulative packet size per connected master and slave (bytes)
system.membus.pkt_size::total                  202560                       # Cumulative packet size per connected master and slave (bytes)
system.membus.snoops                                0                       # Total snoops (count)
system.membus.snoopTraffic                          0                       # Total snoop traffic (bytes)
system.membus.snoop_fanout::samples              3165                       # Request fanout histogram
system.membus.snoop_fanout::mean                    0                       # Request fanout histogram
system.membus.snoop_fanout::stdev                   0                       # Request fanout histogram
system.membus.snoop_fanout::underflows              0      0.00%      0.00% # Request fanout histogram
system.membus.snoop_fanout::0                    3165    100.00%    100.00% # Request fanout histogram
system.membus.snoop_fanout::1                       0      0.00%    100.00% # Request fanout histogram
system.membus.snoop_fanout::overflows               0      0.00%    100.00% # Request fanout histogram
system.membus.snoop_fanout::min_value               0                       # Request fanout histogram
system.membus.snoop_fanout::max_value               0                       # Request fanout histogram
system.membus.snoop_fanout::total                3165                       # Request fanout histogram
system.membus.reqLayer0.occupancy             4729197                       # Layer occupancy (ticks)
system.membus.reqLayer0.utilization               0.0                       # Layer utilization (%)
system.membus.respLayer1.occupancy           16614518                       # Layer occupancy (ticks)
system.membus.respLayer1.utilization              0.0                       # Layer utilization (%)
system.tol2bus.snoop_filter.tot_requests        22742                       # Total number of requests made to the snoop filter.
system.tol2bus.snoop_filter.hit_single_requests        10744                       # Number of requests hitting in the snoop filter with a single holder of the requested data.
system.tol2bus.snoop_filter.hit_multi_requests          381                       # Number of requests hitting in the snoop filter with multiple (>1) holders of the requested data.
system.tol2bus.snoop_filter.tot_snoops           2087                       # Total number of snoops made to the snoop filter.
system.tol2bus.snoop_filter.hit_single_snoops         2087                       # Number of snoops hitting in the snoop filter with a single holder of the requested data.
system.tol2bus.snoop_filter.hit_multi_snoops            0                       # Number of snoops hitting in the snoop filter with multiple (>1) holders of the requested data.
system.tol2bus.pwrStateResidencyTicks::UNDEFINED 100940829500                       # Cumulative time (in ticks) in various power states
system.tol2bus.trans_dist::ReadResp              8255                       # Transaction distribution
system.tol2bus.trans_dist::WritebackDirty         5068                       # Transaction distribution
system.tol2bus.trans_dist::WritebackClean         5663                       # Transaction distribution
system.tol2bus.trans_dist::HardPFReq             3858                       # Transaction distribution
system.tol2bus.trans_dist::ReadExReq             3756                       # Transaction distribution
system.tol2bus.trans_dist::ReadExResp            3756                       # Transaction distribution
system.tol2bus.trans_dist::ReadCleanReq          4908                       # Transaction distribution
system.tol2bus.trans_dist::ReadSharedReq         3347                       # Transaction distribution
system.tol2bus.pkt_count_system.cpu.icache.mem_side::system.l2.cpu_side        14468                       # Packet count per connected master and slave (bytes)
system.tol2bus.pkt_count_system.cpu.dcache.mem_side::system.l2.cpu_side        20285                       # Packet count per connected master and slave (bytes)
system.tol2bus.pkt_count::total                 34753                       # Packet count per connected master and slave (bytes)
system.tol2bus.pkt_size_system.cpu.icache.mem_side::system.l2.cpu_side       611840                       # Cumulative packet size per connected master and slave (bytes)
system.tol2bus.pkt_size_system.cpu.dcache.mem_side::system.l2.cpu_side       843648                       # Cumulative packet size per connected master and slave (bytes)
system.tol2bus.pkt_size::total                1455488                       # Cumulative packet size per connected master and slave (bytes)
system.tol2bus.snoops                            3858                       # Total snoops (count)
system.tol2bus.snoopTraffic                         0                       # Total snoop traffic (bytes)
system.tol2bus.snoop_fanout::samples            15869                       # Request fanout histogram
system.tol2bus.snoop_fanout::mean            0.156343                       # Request fanout histogram
system.tol2bus.snoop_fanout::stdev           0.363191                       # Request fanout histogram
system.tol2bus.snoop_fanout::underflows             0      0.00%      0.00% # Request fanout histogram
system.tol2bus.snoop_fanout::0                  13388     84.37%     84.37% # Request fanout histogram
system.tol2bus.snoop_fanout::1                   2481     15.63%    100.00% # Request fanout histogram
system.tol2bus.snoop_fanout::2                      0      0.00%    100.00% # Request fanout histogram
system.tol2bus.snoop_fanout::3                      0      0.00%    100.00% # Request fanout histogram
system.tol2bus.snoop_fanout::4                      0      0.00%    100.00% # Request fanout histogram
system.tol2bus.snoop_fanout::overflows              0      0.00%    100.00% # Request fanout histogram
system.tol2bus.snoop_fanout::min_value              0                       # Request fanout histogram
system.tol2bus.snoop_fanout::max_value              1                       # Request fanout histogram
system.tol2bus.snoop_fanout::total              15869                       # Request fanout histogram
system.tol2bus.reqLayer0.occupancy           22102000                       # Layer occupancy (ticks)
system.tol2bus.reqLayer0.utilization              0.0                       # Layer utilization (%)
system.tol2bus.respLayer0.occupancy           7363497                       # Layer occupancy (ticks)
system.tol2bus.respLayer0.utilization             0.0                       # Layer utilization (%)
system.tol2bus.respLayer1.occupancy          10657993                       # Layer occupancy (ticks)
system.tol2bus.respLayer1.utilization             0.0                       # Layer utilization (%)

---------- End Simulation Statistics   ----------
