gem5 Simulator System.  http://gem5.org
gem5 is copyrighted software; use the --copyright option for details.

gem5 compiled Feb  8 2019 22:46:07
gem5 started Feb  9 2019 11:34:08
gem5 executing on dev, pid 9495
command line: /home/andrew/ece511/gem5/build/ARM/gem5.fast --outdir=mp2.2_test /home/andrew/ece511/gem5/configs/example/se.py --cmd=/home/andrew/ece511/libquantum/libquantum_base.arm '--options=33 5' --num-cpus=2 --cpu-type=TimingSimpleCPU --l1i_size=16kB --l1d_size=64kB --l2cache --l2_size=256kB --caches

info: Standard input is not a terminal, disabling listeners.
Global frequency set at 1000000000000 ticks per second
