
---------- Begin Simulation Statistics ----------
sim_seconds                                  1.674469                       # Number of seconds simulated
sim_ticks                                1674468901500                       # Number of ticks simulated
final_tick                               6474640909500                       # Number of ticks from beginning of simulation (restored from checkpoints and never reset)
sim_freq                                 1000000000000                       # Frequency of simulated ticks
host_inst_rate                                1350331                       # Simulator instruction rate (inst/s)
host_op_rate                                  3071799                       # Simulator op (including micro ops) rate (op/s)
host_tick_rate                             1499815712                       # Simulator tick rate (ticks/s)
host_mem_usage                                2328908                       # Number of bytes of host memory used
host_seconds                                  1116.45                       # Real time elapsed on the host
sim_insts                                  1507577194                       # Number of instructions simulated
sim_ops                                    3429508751                       # Number of ops (including micro ops) simulated
system.voltage_domain.voltage                       1                       # Voltage in Volts
system.clk_domain.clock                          1000                       # Clock period in ticks
system.mem_ctrls.pwrStateResidencyTicks::UNDEFINED 6474640909500                       # Cumulative time (in ticks) in various power states
system.mem_ctrls.bytes_read::l2.prefetcher        82112                       # Number of bytes read from this memory
system.mem_ctrls.bytes_read::switch_cpus0.inst           64                       # Number of bytes read from this memory
system.mem_ctrls.bytes_read::switch_cpus0.data          128                       # Number of bytes read from this memory
system.mem_ctrls.bytes_read::switch_cpus_10.inst        15552                       # Number of bytes read from this memory
system.mem_ctrls.bytes_read::switch_cpus_10.data        33728                       # Number of bytes read from this memory
system.mem_ctrls.bytes_read::switch_cpus_11.inst         6592                       # Number of bytes read from this memory
system.mem_ctrls.bytes_read::switch_cpus_11.data        29120                       # Number of bytes read from this memory
system.mem_ctrls.bytes_read::switch_cpus_12.inst          640                       # Number of bytes read from this memory
system.mem_ctrls.bytes_read::switch_cpus_12.data        24896                       # Number of bytes read from this memory
system.mem_ctrls.bytes_read::switch_cpus_13.dtb.walker           64                       # Number of bytes read from this memory
system.mem_ctrls.bytes_read::switch_cpus_13.inst         1536                       # Number of bytes read from this memory
system.mem_ctrls.bytes_read::switch_cpus_13.data        18112                       # Number of bytes read from this memory
system.mem_ctrls.bytes_read::switch_cpus_14.inst          832                       # Number of bytes read from this memory
system.mem_ctrls.bytes_read::switch_cpus_14.data        14720                       # Number of bytes read from this memory
system.mem_ctrls.bytes_read::switch_cpus_15.inst          704                       # Number of bytes read from this memory
system.mem_ctrls.bytes_read::switch_cpus_15.data        14912                       # Number of bytes read from this memory
system.mem_ctrls.bytes_read::switch_cpus_16.inst         1920                       # Number of bytes read from this memory
system.mem_ctrls.bytes_read::switch_cpus_16.data         3968                       # Number of bytes read from this memory
system.mem_ctrls.bytes_read::switch_cpus_17.inst         1984                       # Number of bytes read from this memory
system.mem_ctrls.bytes_read::switch_cpus_17.data        30912                       # Number of bytes read from this memory
system.mem_ctrls.bytes_read::total             282496                       # Number of bytes read from this memory
system.mem_ctrls.bytes_inst_read::switch_cpus0.inst           64                       # Number of instructions bytes read from this memory
system.mem_ctrls.bytes_inst_read::switch_cpus_10.inst        15552                       # Number of instructions bytes read from this memory
system.mem_ctrls.bytes_inst_read::switch_cpus_11.inst         6592                       # Number of instructions bytes read from this memory
system.mem_ctrls.bytes_inst_read::switch_cpus_12.inst          640                       # Number of instructions bytes read from this memory
system.mem_ctrls.bytes_inst_read::switch_cpus_13.inst         1536                       # Number of instructions bytes read from this memory
system.mem_ctrls.bytes_inst_read::switch_cpus_14.inst          832                       # Number of instructions bytes read from this memory
system.mem_ctrls.bytes_inst_read::switch_cpus_15.inst          704                       # Number of instructions bytes read from this memory
system.mem_ctrls.bytes_inst_read::switch_cpus_16.inst         1920                       # Number of instructions bytes read from this memory
system.mem_ctrls.bytes_inst_read::switch_cpus_17.inst         1984                       # Number of instructions bytes read from this memory
system.mem_ctrls.bytes_inst_read::total         29824                       # Number of instructions bytes read from this memory
system.mem_ctrls.bytes_written::writebacks      1443200                       # Number of bytes written to this memory
system.mem_ctrls.bytes_written::total         1443200                       # Number of bytes written to this memory
system.mem_ctrls.num_reads::l2.prefetcher         1283                       # Number of read requests responded to by this memory
system.mem_ctrls.num_reads::switch_cpus0.inst            1                       # Number of read requests responded to by this memory
system.mem_ctrls.num_reads::switch_cpus0.data            2                       # Number of read requests responded to by this memory
system.mem_ctrls.num_reads::switch_cpus_10.inst          243                       # Number of read requests responded to by this memory
system.mem_ctrls.num_reads::switch_cpus_10.data          527                       # Number of read requests responded to by this memory
system.mem_ctrls.num_reads::switch_cpus_11.inst          103                       # Number of read requests responded to by this memory
system.mem_ctrls.num_reads::switch_cpus_11.data          455                       # Number of read requests responded to by this memory
system.mem_ctrls.num_reads::switch_cpus_12.inst           10                       # Number of read requests responded to by this memory
system.mem_ctrls.num_reads::switch_cpus_12.data          389                       # Number of read requests responded to by this memory
system.mem_ctrls.num_reads::switch_cpus_13.dtb.walker            1                       # Number of read requests responded to by this memory
system.mem_ctrls.num_reads::switch_cpus_13.inst           24                       # Number of read requests responded to by this memory
system.mem_ctrls.num_reads::switch_cpus_13.data          283                       # Number of read requests responded to by this memory
system.mem_ctrls.num_reads::switch_cpus_14.inst           13                       # Number of read requests responded to by this memory
system.mem_ctrls.num_reads::switch_cpus_14.data          230                       # Number of read requests responded to by this memory
system.mem_ctrls.num_reads::switch_cpus_15.inst           11                       # Number of read requests responded to by this memory
system.mem_ctrls.num_reads::switch_cpus_15.data          233                       # Number of read requests responded to by this memory
system.mem_ctrls.num_reads::switch_cpus_16.inst           30                       # Number of read requests responded to by this memory
system.mem_ctrls.num_reads::switch_cpus_16.data           62                       # Number of read requests responded to by this memory
system.mem_ctrls.num_reads::switch_cpus_17.inst           31                       # Number of read requests responded to by this memory
system.mem_ctrls.num_reads::switch_cpus_17.data          483                       # Number of read requests responded to by this memory
system.mem_ctrls.num_reads::total                4414                       # Number of read requests responded to by this memory
system.mem_ctrls.num_writes::writebacks         22550                       # Number of write requests responded to by this memory
system.mem_ctrls.num_writes::total              22550                       # Number of write requests responded to by this memory
system.mem_ctrls.bw_read::l2.prefetcher         49038                       # Total read bandwidth from this memory (bytes/s)
system.mem_ctrls.bw_read::switch_cpus0.inst           38                       # Total read bandwidth from this memory (bytes/s)
system.mem_ctrls.bw_read::switch_cpus0.data           76                       # Total read bandwidth from this memory (bytes/s)
system.mem_ctrls.bw_read::switch_cpus_10.inst         9288                       # Total read bandwidth from this memory (bytes/s)
system.mem_ctrls.bw_read::switch_cpus_10.data        20143                       # Total read bandwidth from this memory (bytes/s)
system.mem_ctrls.bw_read::switch_cpus_11.inst         3937                       # Total read bandwidth from this memory (bytes/s)
system.mem_ctrls.bw_read::switch_cpus_11.data        17391                       # Total read bandwidth from this memory (bytes/s)
system.mem_ctrls.bw_read::switch_cpus_12.inst          382                       # Total read bandwidth from this memory (bytes/s)
system.mem_ctrls.bw_read::switch_cpus_12.data        14868                       # Total read bandwidth from this memory (bytes/s)
system.mem_ctrls.bw_read::switch_cpus_13.dtb.walker           38                       # Total read bandwidth from this memory (bytes/s)
system.mem_ctrls.bw_read::switch_cpus_13.inst          917                       # Total read bandwidth from this memory (bytes/s)
system.mem_ctrls.bw_read::switch_cpus_13.data        10817                       # Total read bandwidth from this memory (bytes/s)
system.mem_ctrls.bw_read::switch_cpus_14.inst          497                       # Total read bandwidth from this memory (bytes/s)
system.mem_ctrls.bw_read::switch_cpus_14.data         8791                       # Total read bandwidth from this memory (bytes/s)
system.mem_ctrls.bw_read::switch_cpus_15.inst          420                       # Total read bandwidth from this memory (bytes/s)
system.mem_ctrls.bw_read::switch_cpus_15.data         8906                       # Total read bandwidth from this memory (bytes/s)
system.mem_ctrls.bw_read::switch_cpus_16.inst         1147                       # Total read bandwidth from this memory (bytes/s)
system.mem_ctrls.bw_read::switch_cpus_16.data         2370                       # Total read bandwidth from this memory (bytes/s)
system.mem_ctrls.bw_read::switch_cpus_17.inst         1185                       # Total read bandwidth from this memory (bytes/s)
system.mem_ctrls.bw_read::switch_cpus_17.data        18461                       # Total read bandwidth from this memory (bytes/s)
system.mem_ctrls.bw_read::total                168708                       # Total read bandwidth from this memory (bytes/s)
system.mem_ctrls.bw_inst_read::switch_cpus0.inst           38                       # Instruction read bandwidth from this memory (bytes/s)
system.mem_ctrls.bw_inst_read::switch_cpus_10.inst         9288                       # Instruction read bandwidth from this memory (bytes/s)
system.mem_ctrls.bw_inst_read::switch_cpus_11.inst         3937                       # Instruction read bandwidth from this memory (bytes/s)
system.mem_ctrls.bw_inst_read::switch_cpus_12.inst          382                       # Instruction read bandwidth from this memory (bytes/s)
system.mem_ctrls.bw_inst_read::switch_cpus_13.inst          917                       # Instruction read bandwidth from this memory (bytes/s)
system.mem_ctrls.bw_inst_read::switch_cpus_14.inst          497                       # Instruction read bandwidth from this memory (bytes/s)
system.mem_ctrls.bw_inst_read::switch_cpus_15.inst          420                       # Instruction read bandwidth from this memory (bytes/s)
system.mem_ctrls.bw_inst_read::switch_cpus_16.inst         1147                       # Instruction read bandwidth from this memory (bytes/s)
system.mem_ctrls.bw_inst_read::switch_cpus_17.inst         1185                       # Instruction read bandwidth from this memory (bytes/s)
system.mem_ctrls.bw_inst_read::total            17811                       # Instruction read bandwidth from this memory (bytes/s)
system.mem_ctrls.bw_write::writebacks          861885                       # Write bandwidth from this memory (bytes/s)
system.mem_ctrls.bw_write::total               861885                       # Write bandwidth from this memory (bytes/s)
system.mem_ctrls.bw_total::writebacks          861885                       # Total bandwidth to/from this memory (bytes/s)
system.mem_ctrls.bw_total::l2.prefetcher        49038                       # Total bandwidth to/from this memory (bytes/s)
system.mem_ctrls.bw_total::switch_cpus0.inst           38                       # Total bandwidth to/from this memory (bytes/s)
system.mem_ctrls.bw_total::switch_cpus0.data           76                       # Total bandwidth to/from this memory (bytes/s)
system.mem_ctrls.bw_total::switch_cpus_10.inst         9288                       # Total bandwidth to/from this memory (bytes/s)
system.mem_ctrls.bw_total::switch_cpus_10.data        20143                       # Total bandwidth to/from this memory (bytes/s)
system.mem_ctrls.bw_total::switch_cpus_11.inst         3937                       # Total bandwidth to/from this memory (bytes/s)
system.mem_ctrls.bw_total::switch_cpus_11.data        17391                       # Total bandwidth to/from this memory (bytes/s)
system.mem_ctrls.bw_total::switch_cpus_12.inst          382                       # Total bandwidth to/from this memory (bytes/s)
system.mem_ctrls.bw_total::switch_cpus_12.data        14868                       # Total bandwidth to/from this memory (bytes/s)
system.mem_ctrls.bw_total::switch_cpus_13.dtb.walker           38                       # Total bandwidth to/from this memory (bytes/s)
system.mem_ctrls.bw_total::switch_cpus_13.inst          917                       # Total bandwidth to/from this memory (bytes/s)
system.mem_ctrls.bw_total::switch_cpus_13.data        10817                       # Total bandwidth to/from this memory (bytes/s)
system.mem_ctrls.bw_total::switch_cpus_14.inst          497                       # Total bandwidth to/from this memory (bytes/s)
system.mem_ctrls.bw_total::switch_cpus_14.data         8791                       # Total bandwidth to/from this memory (bytes/s)
system.mem_ctrls.bw_total::switch_cpus_15.inst          420                       # Total bandwidth to/from this memory (bytes/s)
system.mem_ctrls.bw_total::switch_cpus_15.data         8906                       # Total bandwidth to/from this memory (bytes/s)
system.mem_ctrls.bw_total::switch_cpus_16.inst         1147                       # Total bandwidth to/from this memory (bytes/s)
system.mem_ctrls.bw_total::switch_cpus_16.data         2370                       # Total bandwidth to/from this memory (bytes/s)
system.mem_ctrls.bw_total::switch_cpus_17.inst         1185                       # Total bandwidth to/from this memory (bytes/s)
system.mem_ctrls.bw_total::switch_cpus_17.data        18461                       # Total bandwidth to/from this memory (bytes/s)
system.mem_ctrls.bw_total::total              1030593                       # Total bandwidth to/from this memory (bytes/s)
system.mem_ctrls.readReqs                        4411                       # Number of read requests accepted
system.mem_ctrls.writeReqs                      22548                       # Number of write requests accepted
system.mem_ctrls.readBursts                      4411                       # Number of DRAM read bursts, including those serviced by the write queue
system.mem_ctrls.writeBursts                    22548                       # Number of DRAM write bursts, including those merged in the write queue
system.mem_ctrls.bytesReadDRAM                 281408                       # Total number of bytes read from DRAM
system.mem_ctrls.bytesReadWrQ                     896                       # Total number of bytes read from write queue
system.mem_ctrls.bytesWritten                 1441536                       # Total number of bytes written to DRAM
system.mem_ctrls.bytesReadSys                  282304                       # Total read bytes from the system interface side
system.mem_ctrls.bytesWrittenSys              1443072                       # Total written bytes from the system interface side
system.mem_ctrls.servicedByWrQ                     14                       # Number of DRAM read bursts serviced by the write queue
system.mem_ctrls.mergedWrBursts                     0                       # Number of DRAM write bursts merged with an existing one
system.mem_ctrls.neitherReadNorWriteReqs            0                       # Number of requests that are neither read nor write
system.mem_ctrls.perBankRdBursts::0               369                       # Per bank write bursts
system.mem_ctrls.perBankRdBursts::1               213                       # Per bank write bursts
system.mem_ctrls.perBankRdBursts::2               140                       # Per bank write bursts
system.mem_ctrls.perBankRdBursts::3               180                       # Per bank write bursts
system.mem_ctrls.perBankRdBursts::4               435                       # Per bank write bursts
system.mem_ctrls.perBankRdBursts::5               166                       # Per bank write bursts
system.mem_ctrls.perBankRdBursts::6               192                       # Per bank write bursts
system.mem_ctrls.perBankRdBursts::7               209                       # Per bank write bursts
system.mem_ctrls.perBankRdBursts::8               354                       # Per bank write bursts
system.mem_ctrls.perBankRdBursts::9               333                       # Per bank write bursts
system.mem_ctrls.perBankRdBursts::10              294                       # Per bank write bursts
system.mem_ctrls.perBankRdBursts::11              160                       # Per bank write bursts
system.mem_ctrls.perBankRdBursts::12              662                       # Per bank write bursts
system.mem_ctrls.perBankRdBursts::13              291                       # Per bank write bursts
system.mem_ctrls.perBankRdBursts::14              292                       # Per bank write bursts
system.mem_ctrls.perBankRdBursts::15              107                       # Per bank write bursts
system.mem_ctrls.perBankWrBursts::0              1136                       # Per bank write bursts
system.mem_ctrls.perBankWrBursts::1              1041                       # Per bank write bursts
system.mem_ctrls.perBankWrBursts::2               832                       # Per bank write bursts
system.mem_ctrls.perBankWrBursts::3              1059                       # Per bank write bursts
system.mem_ctrls.perBankWrBursts::4              1363                       # Per bank write bursts
system.mem_ctrls.perBankWrBursts::5              1349                       # Per bank write bursts
system.mem_ctrls.perBankWrBursts::6              1407                       # Per bank write bursts
system.mem_ctrls.perBankWrBursts::7              1426                       # Per bank write bursts
system.mem_ctrls.perBankWrBursts::8              1539                       # Per bank write bursts
system.mem_ctrls.perBankWrBursts::9              1730                       # Per bank write bursts
system.mem_ctrls.perBankWrBursts::10             1716                       # Per bank write bursts
system.mem_ctrls.perBankWrBursts::11             1719                       # Per bank write bursts
system.mem_ctrls.perBankWrBursts::12             1757                       # Per bank write bursts
system.mem_ctrls.perBankWrBursts::13             1565                       # Per bank write bursts
system.mem_ctrls.perBankWrBursts::14             1633                       # Per bank write bursts
system.mem_ctrls.perBankWrBursts::15             1252                       # Per bank write bursts
system.mem_ctrls.numRdRetry                         0                       # Number of times read queue was full causing retry
system.mem_ctrls.numWrRetry                        17                       # Number of times write queue was full causing retry
system.mem_ctrls.totGap                  1390601528500                       # Total gap between requests
system.mem_ctrls.readPktSize::0                     0                       # Read request sizes (log2)
system.mem_ctrls.readPktSize::1                     0                       # Read request sizes (log2)
system.mem_ctrls.readPktSize::2                     0                       # Read request sizes (log2)
system.mem_ctrls.readPktSize::3                     0                       # Read request sizes (log2)
system.mem_ctrls.readPktSize::4                     0                       # Read request sizes (log2)
system.mem_ctrls.readPktSize::5                     0                       # Read request sizes (log2)
system.mem_ctrls.readPktSize::6                  4411                       # Read request sizes (log2)
system.mem_ctrls.writePktSize::0                    0                       # Write request sizes (log2)
system.mem_ctrls.writePktSize::1                    0                       # Write request sizes (log2)
system.mem_ctrls.writePktSize::2                    0                       # Write request sizes (log2)
system.mem_ctrls.writePktSize::3                    0                       # Write request sizes (log2)
system.mem_ctrls.writePktSize::4                    0                       # Write request sizes (log2)
system.mem_ctrls.writePktSize::5                    0                       # Write request sizes (log2)
system.mem_ctrls.writePktSize::6                22548                       # Write request sizes (log2)
system.mem_ctrls.rdQLenPdf::0                    3933                       # What read queue length does an incoming req see
system.mem_ctrls.rdQLenPdf::1                     191                       # What read queue length does an incoming req see
system.mem_ctrls.rdQLenPdf::2                     105                       # What read queue length does an incoming req see
system.mem_ctrls.rdQLenPdf::3                      96                       # What read queue length does an incoming req see
system.mem_ctrls.rdQLenPdf::4                      69                       # What read queue length does an incoming req see
system.mem_ctrls.rdQLenPdf::5                       3                       # What read queue length does an incoming req see
system.mem_ctrls.rdQLenPdf::6                       0                       # What read queue length does an incoming req see
system.mem_ctrls.rdQLenPdf::7                       0                       # What read queue length does an incoming req see
system.mem_ctrls.rdQLenPdf::8                       0                       # What read queue length does an incoming req see
system.mem_ctrls.rdQLenPdf::9                       0                       # What read queue length does an incoming req see
system.mem_ctrls.rdQLenPdf::10                      0                       # What read queue length does an incoming req see
system.mem_ctrls.rdQLenPdf::11                      0                       # What read queue length does an incoming req see
system.mem_ctrls.rdQLenPdf::12                      0                       # What read queue length does an incoming req see
system.mem_ctrls.rdQLenPdf::13                      0                       # What read queue length does an incoming req see
system.mem_ctrls.rdQLenPdf::14                      0                       # What read queue length does an incoming req see
system.mem_ctrls.rdQLenPdf::15                      0                       # What read queue length does an incoming req see
system.mem_ctrls.rdQLenPdf::16                      0                       # What read queue length does an incoming req see
system.mem_ctrls.rdQLenPdf::17                      0                       # What read queue length does an incoming req see
system.mem_ctrls.rdQLenPdf::18                      0                       # What read queue length does an incoming req see
system.mem_ctrls.rdQLenPdf::19                      0                       # What read queue length does an incoming req see
system.mem_ctrls.rdQLenPdf::20                      0                       # What read queue length does an incoming req see
system.mem_ctrls.rdQLenPdf::21                      0                       # What read queue length does an incoming req see
system.mem_ctrls.rdQLenPdf::22                      0                       # What read queue length does an incoming req see
system.mem_ctrls.rdQLenPdf::23                      0                       # What read queue length does an incoming req see
system.mem_ctrls.rdQLenPdf::24                      0                       # What read queue length does an incoming req see
system.mem_ctrls.rdQLenPdf::25                      0                       # What read queue length does an incoming req see
system.mem_ctrls.rdQLenPdf::26                      0                       # What read queue length does an incoming req see
system.mem_ctrls.rdQLenPdf::27                      0                       # What read queue length does an incoming req see
system.mem_ctrls.rdQLenPdf::28                      0                       # What read queue length does an incoming req see
system.mem_ctrls.rdQLenPdf::29                      0                       # What read queue length does an incoming req see
system.mem_ctrls.rdQLenPdf::30                      0                       # What read queue length does an incoming req see
system.mem_ctrls.rdQLenPdf::31                      0                       # What read queue length does an incoming req see
system.mem_ctrls.wrQLenPdf::0                       1                       # What write queue length does an incoming req see
system.mem_ctrls.wrQLenPdf::1                       1                       # What write queue length does an incoming req see
system.mem_ctrls.wrQLenPdf::2                       1                       # What write queue length does an incoming req see
system.mem_ctrls.wrQLenPdf::3                       1                       # What write queue length does an incoming req see
system.mem_ctrls.wrQLenPdf::4                       1                       # What write queue length does an incoming req see
system.mem_ctrls.wrQLenPdf::5                       1                       # What write queue length does an incoming req see
system.mem_ctrls.wrQLenPdf::6                       1                       # What write queue length does an incoming req see
system.mem_ctrls.wrQLenPdf::7                       1                       # What write queue length does an incoming req see
system.mem_ctrls.wrQLenPdf::8                       1                       # What write queue length does an incoming req see
system.mem_ctrls.wrQLenPdf::9                       1                       # What write queue length does an incoming req see
system.mem_ctrls.wrQLenPdf::10                      1                       # What write queue length does an incoming req see
system.mem_ctrls.wrQLenPdf::11                      1                       # What write queue length does an incoming req see
system.mem_ctrls.wrQLenPdf::12                      1                       # What write queue length does an incoming req see
system.mem_ctrls.wrQLenPdf::13                      1                       # What write queue length does an incoming req see
system.mem_ctrls.wrQLenPdf::14                      1                       # What write queue length does an incoming req see
system.mem_ctrls.wrQLenPdf::15                    458                       # What write queue length does an incoming req see
system.mem_ctrls.wrQLenPdf::16                    975                       # What write queue length does an incoming req see
system.mem_ctrls.wrQLenPdf::17                    754                       # What write queue length does an incoming req see
system.mem_ctrls.wrQLenPdf::18                    714                       # What write queue length does an incoming req see
system.mem_ctrls.wrQLenPdf::19                    952                       # What write queue length does an incoming req see
system.mem_ctrls.wrQLenPdf::20                    788                       # What write queue length does an incoming req see
system.mem_ctrls.wrQLenPdf::21                    919                       # What write queue length does an incoming req see
system.mem_ctrls.wrQLenPdf::22                   1116                       # What write queue length does an incoming req see
system.mem_ctrls.wrQLenPdf::23                   1599                       # What write queue length does an incoming req see
system.mem_ctrls.wrQLenPdf::24                   1372                       # What write queue length does an incoming req see
system.mem_ctrls.wrQLenPdf::25                   2112                       # What write queue length does an incoming req see
system.mem_ctrls.wrQLenPdf::26                   2544                       # What write queue length does an incoming req see
system.mem_ctrls.wrQLenPdf::27                   1420                       # What write queue length does an incoming req see
system.mem_ctrls.wrQLenPdf::28                    997                       # What write queue length does an incoming req see
system.mem_ctrls.wrQLenPdf::29                   1036                       # What write queue length does an incoming req see
system.mem_ctrls.wrQLenPdf::30                    947                       # What write queue length does an incoming req see
system.mem_ctrls.wrQLenPdf::31                    697                       # What write queue length does an incoming req see
system.mem_ctrls.wrQLenPdf::32                    682                       # What write queue length does an incoming req see
system.mem_ctrls.wrQLenPdf::33                    108                       # What write queue length does an incoming req see
system.mem_ctrls.wrQLenPdf::34                    137                       # What write queue length does an incoming req see
system.mem_ctrls.wrQLenPdf::35                     96                       # What write queue length does an incoming req see
system.mem_ctrls.wrQLenPdf::36                     98                       # What write queue length does an incoming req see
system.mem_ctrls.wrQLenPdf::37                     77                       # What write queue length does an incoming req see
system.mem_ctrls.wrQLenPdf::38                     46                       # What write queue length does an incoming req see
system.mem_ctrls.wrQLenPdf::39                     72                       # What write queue length does an incoming req see
system.mem_ctrls.wrQLenPdf::40                     83                       # What write queue length does an incoming req see
system.mem_ctrls.wrQLenPdf::41                     71                       # What write queue length does an incoming req see
system.mem_ctrls.wrQLenPdf::42                     90                       # What write queue length does an incoming req see
system.mem_ctrls.wrQLenPdf::43                     95                       # What write queue length does an incoming req see
system.mem_ctrls.wrQLenPdf::44                    120                       # What write queue length does an incoming req see
system.mem_ctrls.wrQLenPdf::45                     96                       # What write queue length does an incoming req see
system.mem_ctrls.wrQLenPdf::46                    124                       # What write queue length does an incoming req see
system.mem_ctrls.wrQLenPdf::47                     85                       # What write queue length does an incoming req see
system.mem_ctrls.wrQLenPdf::48                     81                       # What write queue length does an incoming req see
system.mem_ctrls.wrQLenPdf::49                     89                       # What write queue length does an incoming req see
system.mem_ctrls.wrQLenPdf::50                     76                       # What write queue length does an incoming req see
system.mem_ctrls.wrQLenPdf::51                     69                       # What write queue length does an incoming req see
system.mem_ctrls.wrQLenPdf::52                     96                       # What write queue length does an incoming req see
system.mem_ctrls.wrQLenPdf::53                     73                       # What write queue length does an incoming req see
system.mem_ctrls.wrQLenPdf::54                     51                       # What write queue length does an incoming req see
system.mem_ctrls.wrQLenPdf::55                     65                       # What write queue length does an incoming req see
system.mem_ctrls.wrQLenPdf::56                     90                       # What write queue length does an incoming req see
system.mem_ctrls.wrQLenPdf::57                     65                       # What write queue length does an incoming req see
system.mem_ctrls.wrQLenPdf::58                     53                       # What write queue length does an incoming req see
system.mem_ctrls.wrQLenPdf::59                     66                       # What write queue length does an incoming req see
system.mem_ctrls.wrQLenPdf::60                     56                       # What write queue length does an incoming req see
system.mem_ctrls.wrQLenPdf::61                     63                       # What write queue length does an incoming req see
system.mem_ctrls.wrQLenPdf::62                     20                       # What write queue length does an incoming req see
system.mem_ctrls.wrQLenPdf::63                     40                       # What write queue length does an incoming req see
system.mem_ctrls.bytesPerActivate::samples         4396                       # Bytes accessed per row activation
system.mem_ctrls.bytesPerActivate::mean    391.934486                       # Bytes accessed per row activation
system.mem_ctrls.bytesPerActivate::gmean   186.566609                       # Bytes accessed per row activation
system.mem_ctrls.bytesPerActivate::stdev   431.082423                       # Bytes accessed per row activation
system.mem_ctrls.bytesPerActivate::0-127         2216     50.41%     50.41% # Bytes accessed per row activation
system.mem_ctrls.bytesPerActivate::128-255          530     12.06%     62.47% # Bytes accessed per row activation
system.mem_ctrls.bytesPerActivate::256-383          162      3.69%     66.15% # Bytes accessed per row activation
system.mem_ctrls.bytesPerActivate::384-511           61      1.39%     67.54% # Bytes accessed per row activation
system.mem_ctrls.bytesPerActivate::512-639           26      0.59%     68.13% # Bytes accessed per row activation
system.mem_ctrls.bytesPerActivate::640-767           23      0.52%     68.65% # Bytes accessed per row activation
system.mem_ctrls.bytesPerActivate::768-895           18      0.41%     69.06% # Bytes accessed per row activation
system.mem_ctrls.bytesPerActivate::896-1023           54      1.23%     70.29% # Bytes accessed per row activation
system.mem_ctrls.bytesPerActivate::1024-1151         1306     29.71%    100.00% # Bytes accessed per row activation
system.mem_ctrls.bytesPerActivate::total         4396                       # Bytes accessed per row activation
system.mem_ctrls.rdPerTurnAround::samples          519                       # Reads before turning the bus around for writes
system.mem_ctrls.rdPerTurnAround::mean       8.414258                       # Reads before turning the bus around for writes
system.mem_ctrls.rdPerTurnAround::stdev     23.024829                       # Reads before turning the bus around for writes
system.mem_ctrls.rdPerTurnAround::0-7             414     79.77%     79.77% # Reads before turning the bus around for writes
system.mem_ctrls.rdPerTurnAround::8-15             13      2.50%     82.27% # Reads before turning the bus around for writes
system.mem_ctrls.rdPerTurnAround::16-23            30      5.78%     88.05% # Reads before turning the bus around for writes
system.mem_ctrls.rdPerTurnAround::24-31            13      2.50%     90.56% # Reads before turning the bus around for writes
system.mem_ctrls.rdPerTurnAround::32-39            14      2.70%     93.26% # Reads before turning the bus around for writes
system.mem_ctrls.rdPerTurnAround::40-47             7      1.35%     94.61% # Reads before turning the bus around for writes
system.mem_ctrls.rdPerTurnAround::48-55             1      0.19%     94.80% # Reads before turning the bus around for writes
system.mem_ctrls.rdPerTurnAround::56-63             6      1.16%     95.95% # Reads before turning the bus around for writes
system.mem_ctrls.rdPerTurnAround::64-71             6      1.16%     97.11% # Reads before turning the bus around for writes
system.mem_ctrls.rdPerTurnAround::72-79             3      0.58%     97.69% # Reads before turning the bus around for writes
system.mem_ctrls.rdPerTurnAround::80-87             1      0.19%     97.88% # Reads before turning the bus around for writes
system.mem_ctrls.rdPerTurnAround::88-95             4      0.77%     98.65% # Reads before turning the bus around for writes
system.mem_ctrls.rdPerTurnAround::96-103            1      0.19%     98.84% # Reads before turning the bus around for writes
system.mem_ctrls.rdPerTurnAround::104-111            1      0.19%     99.04% # Reads before turning the bus around for writes
system.mem_ctrls.rdPerTurnAround::112-119            1      0.19%     99.23% # Reads before turning the bus around for writes
system.mem_ctrls.rdPerTurnAround::120-127            1      0.19%     99.42% # Reads before turning the bus around for writes
system.mem_ctrls.rdPerTurnAround::128-135            1      0.19%     99.61% # Reads before turning the bus around for writes
system.mem_ctrls.rdPerTurnAround::136-143            1      0.19%     99.81% # Reads before turning the bus around for writes
system.mem_ctrls.rdPerTurnAround::248-255            1      0.19%    100.00% # Reads before turning the bus around for writes
system.mem_ctrls.rdPerTurnAround::total           519                       # Reads before turning the bus around for writes
system.mem_ctrls.wrPerTurnAround::samples          519                       # Writes before turning the bus around for reads
system.mem_ctrls.wrPerTurnAround::mean      43.398844                       # Writes before turning the bus around for reads
system.mem_ctrls.wrPerTurnAround::gmean     36.526482                       # Writes before turning the bus around for reads
system.mem_ctrls.wrPerTurnAround::stdev     29.566640                       # Writes before turning the bus around for reads
system.mem_ctrls.wrPerTurnAround::16-19            97     18.69%     18.69% # Writes before turning the bus around for reads
system.mem_ctrls.wrPerTurnAround::20-23            32      6.17%     24.86% # Writes before turning the bus around for reads
system.mem_ctrls.wrPerTurnAround::24-27            11      2.12%     26.97% # Writes before turning the bus around for reads
system.mem_ctrls.wrPerTurnAround::28-31            23      4.43%     31.41% # Writes before turning the bus around for reads
system.mem_ctrls.wrPerTurnAround::32-35           148     28.52%     59.92% # Writes before turning the bus around for reads
system.mem_ctrls.wrPerTurnAround::36-39            12      2.31%     62.24% # Writes before turning the bus around for reads
system.mem_ctrls.wrPerTurnAround::40-43            18      3.47%     65.70% # Writes before turning the bus around for reads
system.mem_ctrls.wrPerTurnAround::44-47             9      1.73%     67.44% # Writes before turning the bus around for reads
system.mem_ctrls.wrPerTurnAround::48-51             6      1.16%     68.59% # Writes before turning the bus around for reads
system.mem_ctrls.wrPerTurnAround::52-55             3      0.58%     69.17% # Writes before turning the bus around for reads
system.mem_ctrls.wrPerTurnAround::56-59             4      0.77%     69.94% # Writes before turning the bus around for reads
system.mem_ctrls.wrPerTurnAround::60-63             8      1.54%     71.48% # Writes before turning the bus around for reads
system.mem_ctrls.wrPerTurnAround::64-67           107     20.62%     92.10% # Writes before turning the bus around for reads
system.mem_ctrls.wrPerTurnAround::68-71             1      0.19%     92.29% # Writes before turning the bus around for reads
system.mem_ctrls.wrPerTurnAround::72-75             1      0.19%     92.49% # Writes before turning the bus around for reads
system.mem_ctrls.wrPerTurnAround::76-79             8      1.54%     94.03% # Writes before turning the bus around for reads
system.mem_ctrls.wrPerTurnAround::80-83             2      0.39%     94.41% # Writes before turning the bus around for reads
system.mem_ctrls.wrPerTurnAround::84-87             3      0.58%     94.99% # Writes before turning the bus around for reads
system.mem_ctrls.wrPerTurnAround::88-91             1      0.19%     95.18% # Writes before turning the bus around for reads
system.mem_ctrls.wrPerTurnAround::104-107            1      0.19%     95.38% # Writes before turning the bus around for reads
system.mem_ctrls.wrPerTurnAround::108-111            5      0.96%     96.34% # Writes before turning the bus around for reads
system.mem_ctrls.wrPerTurnAround::120-123            2      0.39%     96.72% # Writes before turning the bus around for reads
system.mem_ctrls.wrPerTurnAround::124-127            1      0.19%     96.92% # Writes before turning the bus around for reads
system.mem_ctrls.wrPerTurnAround::128-131            7      1.35%     98.27% # Writes before turning the bus around for reads
system.mem_ctrls.wrPerTurnAround::140-143            1      0.19%     98.46% # Writes before turning the bus around for reads
system.mem_ctrls.wrPerTurnAround::144-147            1      0.19%     98.65% # Writes before turning the bus around for reads
system.mem_ctrls.wrPerTurnAround::160-163            1      0.19%     98.84% # Writes before turning the bus around for reads
system.mem_ctrls.wrPerTurnAround::184-187            1      0.19%     99.04% # Writes before turning the bus around for reads
system.mem_ctrls.wrPerTurnAround::188-191            2      0.39%     99.42% # Writes before turning the bus around for reads
system.mem_ctrls.wrPerTurnAround::192-195            2      0.39%     99.81% # Writes before turning the bus around for reads
system.mem_ctrls.wrPerTurnAround::232-235            1      0.19%    100.00% # Writes before turning the bus around for reads
system.mem_ctrls.wrPerTurnAround::total           519                       # Writes before turning the bus around for reads
system.mem_ctrls.totQLat                    432830624                       # Total ticks spent queuing
system.mem_ctrls.totMemAccLat               515274374                       # Total ticks spent from burst creation until serviced by the DRAM
system.mem_ctrls.totBusLat                   21985000                       # Total ticks spent in databus transfers
system.mem_ctrls.avgQLat                     98437.71                       # Average queueing delay per DRAM burst
system.mem_ctrls.avgBusLat                    5000.00                       # Average bus latency per DRAM burst
system.mem_ctrls.avgMemAccLat               117187.71                       # Average memory access latency per DRAM burst
system.mem_ctrls.avgRdBW                         0.17                       # Average DRAM read bandwidth in MiByte/s
system.mem_ctrls.avgWrBW                         0.86                       # Average achieved write bandwidth in MiByte/s
system.mem_ctrls.avgRdBWSys                      0.17                       # Average system read bandwidth in MiByte/s
system.mem_ctrls.avgWrBWSys                      0.86                       # Average system write bandwidth in MiByte/s
system.mem_ctrls.peakBW                      12800.00                       # Theoretical peak bandwidth in MiByte/s
system.mem_ctrls.busUtil                         0.01                       # Data bus utilization in percentage
system.mem_ctrls.busUtilRead                     0.00                       # Data bus utilization in percentage for reads
system.mem_ctrls.busUtilWrite                    0.01                       # Data bus utilization in percentage for writes
system.mem_ctrls.avgRdQLen                       1.46                       # Average read queue length when enqueuing
system.mem_ctrls.avgWrQLen                      24.75                       # Average write queue length when enqueuing
system.mem_ctrls.readRowHits                     2456                       # Number of row buffer hits during reads
system.mem_ctrls.writeRowHits                   20069                       # Number of row buffer hits during writes
system.mem_ctrls.readRowHitRate                 55.86                       # Row buffer hit rate for reads
system.mem_ctrls.writeRowHitRate                89.01                       # Row buffer hit rate for writes
system.mem_ctrls.avgGap                   51582088.67                       # Average gap between requests
system.mem_ctrls.pageHitRate                    83.60                       # Row buffer hit rate, read and write combined
system.mem_ctrls_0.actEnergy                 14080080                       # Energy for activate commands per rank (pJ)
system.mem_ctrls_0.preEnergy                  7483740                       # Energy for precharge commands per rank (pJ)
system.mem_ctrls_0.readEnergy                13594560                       # Energy for read commands per rank (pJ)
system.mem_ctrls_0.writeEnergy               50179860                       # Energy for write commands per rank (pJ)
system.mem_ctrls_0.refreshEnergy         596200800.000000                       # Energy for refresh commands per rank (pJ)
system.mem_ctrls_0.actBackEnergy            289851270                       # Energy for active background per rank (pJ)
system.mem_ctrls_0.preBackEnergy             39337920                       # Energy for precharge background per rank (pJ)
system.mem_ctrls_0.actPowerDownEnergy      1099763130                       # Energy for active power-down per rank (pJ)
system.mem_ctrls_0.prePowerDownEnergy       891544800                       # Energy for precharge power-down per rank (pJ)
system.mem_ctrls_0.selfRefreshEnergy     400709844480                       # Energy for self refresh per rank (pJ)
system.mem_ctrls_0.totalEnergy           403711880640                       # Total energy per rank (pJ)
system.mem_ctrls_0.averagePower            241.098464                       # Core power per rank (mW)
system.mem_ctrls_0.totalIdleTime         1389883227500                       # Total Idle time Per DRAM Rank
system.mem_ctrls_0.memoryStateTime::IDLE     87638000                       # Time in different power states
system.mem_ctrls_0.memoryStateTime::REF     253928000                       # Time in different power states
system.mem_ctrls_0.memoryStateTime::SREF 1668963967500                       # Time in different power states
system.mem_ctrls_0.memoryStateTime::PRE_PDN   2321734000                       # Time in different power states
system.mem_ctrls_0.memoryStateTime::ACT     404269500                       # Time in different power states
system.mem_ctrls_0.memoryStateTime::ACT_PDN   2411787500                       # Time in different power states
system.mem_ctrls_1.actEnergy                 17307360                       # Energy for activate commands per rank (pJ)
system.mem_ctrls_1.preEnergy                  9199080                       # Energy for precharge commands per rank (pJ)
system.mem_ctrls_1.readEnergy                17800020                       # Energy for read commands per rank (pJ)
system.mem_ctrls_1.writeEnergy               67395420                       # Energy for write commands per rank (pJ)
system.mem_ctrls_1.refreshEnergy         613410720.000000                       # Energy for refresh commands per rank (pJ)
system.mem_ctrls_1.actBackEnergy            316782630                       # Energy for active background per rank (pJ)
system.mem_ctrls_1.preBackEnergy             39370080                       # Energy for precharge background per rank (pJ)
system.mem_ctrls_1.actPowerDownEnergy      1163476020                       # Energy for active power-down per rank (pJ)
system.mem_ctrls_1.prePowerDownEnergy       910046400                       # Energy for precharge power-down per rank (pJ)
system.mem_ctrls_1.selfRefreshEnergy     400648344420                       # Energy for self refresh per rank (pJ)
system.mem_ctrls_1.totalEnergy           403803132150                       # Total energy per rank (pJ)
system.mem_ctrls_1.averagePower            241.152960                       # Core power per rank (mW)
system.mem_ctrls_1.totalIdleTime         1213871872762                       # Total Idle time Per DRAM Rank
system.mem_ctrls_1.memoryStateTime::IDLE     85321250                       # Time in different power states
system.mem_ctrls_1.memoryStateTime::REF     261178000                       # Time in different power states
system.mem_ctrls_1.memoryStateTime::SREF 1668716951500                       # Time in different power states
system.mem_ctrls_1.memoryStateTime::PRE_PDN   2369940989                       # Time in different power states
system.mem_ctrls_1.memoryStateTime::ACT     458460988                       # Time in different power states
system.mem_ctrls_1.memoryStateTime::ACT_PDN   2551471773                       # Time in different power states
system.pwrStateResidencyTicks::UNDEFINED 6474640909500                       # Cumulative time (in ticks) in various power states
system.apicbridge.pwrStateResidencyTicks::UNDEFINED 6474640909500                       # Cumulative time (in ticks) in various power states
system.bridge.pwrStateResidencyTicks::UNDEFINED 6474640909500                       # Cumulative time (in ticks) in various power states
system.cpu_voltage_domain.voltage                   1                       # Voltage in Volts
system.cpu_clk_domain.clock                       500                       # Clock period in ticks
system.cpu0.dtb.walker.pwrStateResidencyTicks::UNDEFINED 6474640909500                       # Cumulative time (in ticks) in various power states
system.cpu0.dtb.rdAccesses                          0                       # TLB accesses on read requests
system.cpu0.dtb.wrAccesses                          0                       # TLB accesses on write requests
system.cpu0.dtb.rdMisses                            0                       # TLB misses on read requests
system.cpu0.dtb.wrMisses                            0                       # TLB misses on write requests
system.cpu0.apic_clk_domain.clock                8000                       # Clock period in ticks
system.cpu0.interrupts.pwrStateResidencyTicks::UNDEFINED 6474640909500                       # Cumulative time (in ticks) in various power states
system.cpu0.itb.walker.pwrStateResidencyTicks::UNDEFINED 6474640909500                       # Cumulative time (in ticks) in various power states
system.cpu0.itb.rdAccesses                          0                       # TLB accesses on read requests
system.cpu0.itb.wrAccesses                          0                       # TLB accesses on write requests
system.cpu0.itb.rdMisses                            0                       # TLB misses on read requests
system.cpu0.itb.wrMisses                            0                       # TLB misses on write requests
system.cpu0.pwrStateResidencyTicks::OFF  6474640907500                       # Cumulative time (in ticks) in various power states
system.cpu0.numCycles                               0                       # number of cpu cycles simulated
system.cpu0.numWorkItemsStarted                     0                       # number of work items this cpu started
system.cpu0.numWorkItemsCompleted                   0                       # number of work items this cpu completed
system.cpu0.kern.inst.arm                           0                       # number of arm instructions executed
system.cpu0.kern.inst.quiesce                       0                       # number of quiesce instructions executed
system.cpu0.committedInsts                          0                       # Number of instructions committed
system.cpu0.committedOps                            0                       # Number of ops (including micro ops) committed
system.cpu0.num_int_alu_accesses                    0                       # Number of integer alu accesses
system.cpu0.num_fp_alu_accesses                     0                       # Number of float alu accesses
system.cpu0.num_vec_alu_accesses                    0                       # Number of vector alu accesses
system.cpu0.num_func_calls                          0                       # number of times a function call or return occured
system.cpu0.num_conditional_control_insts            0                       # number of instructions that are conditional controls
system.cpu0.num_int_insts                           0                       # number of integer instructions
system.cpu0.num_fp_insts                            0                       # number of float instructions
system.cpu0.num_vec_insts                           0                       # number of vector instructions
system.cpu0.num_int_register_reads                  0                       # number of times the integer registers were read
system.cpu0.num_int_register_writes                 0                       # number of times the integer registers were written
system.cpu0.num_fp_register_reads                   0                       # number of times the floating registers were read
system.cpu0.num_fp_register_writes                  0                       # number of times the floating registers were written
system.cpu0.num_vec_register_reads                  0                       # number of times the vector registers were read
system.cpu0.num_vec_register_writes                 0                       # number of times the vector registers were written
system.cpu0.num_mem_refs                            0                       # number of memory refs
system.cpu0.num_load_insts                          0                       # Number of load instructions
system.cpu0.num_store_insts                         0                       # Number of store instructions
system.cpu0.num_idle_cycles                         0                       # Number of idle cycles
system.cpu0.num_busy_cycles                         0                       # Number of busy cycles
system.cpu0.not_idle_fraction                       1                       # Percentage of non-idle cycles
system.cpu0.idle_fraction                           0                       # Percentage of idle cycles
system.cpu0.op_class::No_OpClass                    0                       # Class of executed instruction
system.cpu0.op_class::IntAlu                        0                       # Class of executed instruction
system.cpu0.op_class::IntMult                       0                       # Class of executed instruction
system.cpu0.op_class::IntDiv                        0                       # Class of executed instruction
system.cpu0.op_class::FloatAdd                      0                       # Class of executed instruction
system.cpu0.op_class::FloatCmp                      0                       # Class of executed instruction
system.cpu0.op_class::FloatCvt                      0                       # Class of executed instruction
system.cpu0.op_class::FloatMult                     0                       # Class of executed instruction
system.cpu0.op_class::FloatMultAcc                  0                       # Class of executed instruction
system.cpu0.op_class::FloatDiv                      0                       # Class of executed instruction
system.cpu0.op_class::FloatMisc                     0                       # Class of executed instruction
system.cpu0.op_class::FloatSqrt                     0                       # Class of executed instruction
system.cpu0.op_class::SimdAdd                       0                       # Class of executed instruction
system.cpu0.op_class::SimdAddAcc                    0                       # Class of executed instruction
system.cpu0.op_class::SimdAlu                       0                       # Class of executed instruction
system.cpu0.op_class::SimdCmp                       0                       # Class of executed instruction
system.cpu0.op_class::SimdCvt                       0                       # Class of executed instruction
system.cpu0.op_class::SimdMisc                      0                       # Class of executed instruction
system.cpu0.op_class::SimdMult                      0                       # Class of executed instruction
system.cpu0.op_class::SimdMultAcc                   0                       # Class of executed instruction
system.cpu0.op_class::SimdShift                     0                       # Class of executed instruction
system.cpu0.op_class::SimdShiftAcc                  0                       # Class of executed instruction
system.cpu0.op_class::SimdSqrt                      0                       # Class of executed instruction
system.cpu0.op_class::SimdFloatAdd                  0                       # Class of executed instruction
system.cpu0.op_class::SimdFloatAlu                  0                       # Class of executed instruction
system.cpu0.op_class::SimdFloatCmp                  0                       # Class of executed instruction
system.cpu0.op_class::SimdFloatCvt                  0                       # Class of executed instruction
system.cpu0.op_class::SimdFloatDiv                  0                       # Class of executed instruction
system.cpu0.op_class::SimdFloatMisc                 0                       # Class of executed instruction
system.cpu0.op_class::SimdFloatMult                 0                       # Class of executed instruction
system.cpu0.op_class::SimdFloatMultAcc              0                       # Class of executed instruction
system.cpu0.op_class::SimdFloatSqrt                 0                       # Class of executed instruction
system.cpu0.op_class::MemRead                       0                       # Class of executed instruction
system.cpu0.op_class::MemWrite                      0                       # Class of executed instruction
system.cpu0.op_class::FloatMemRead                  0                       # Class of executed instruction
system.cpu0.op_class::FloatMemWrite                 0                       # Class of executed instruction
system.cpu0.op_class::IprAccess                     0                       # Class of executed instruction
system.cpu0.op_class::InstPrefetch                  0                       # Class of executed instruction
system.cpu0.op_class::total                         0                       # Class of executed instruction
system.cpu0.dcache.tags.pwrStateResidencyTicks::UNDEFINED 6474640909500                       # Cumulative time (in ticks) in various power states
system.cpu0.dcache.tags.replacements            19376                       # number of replacements
system.cpu0.dcache.tags.tagsinuse          925.030504                       # Cycle average of tags in use
system.cpu0.dcache.tags.total_refs            1064360                       # Total number of references to valid blocks.
system.cpu0.dcache.tags.sampled_refs            20359                       # Sample count of references to valid blocks.
system.cpu0.dcache.tags.avg_refs            52.279582                       # Average number of references to valid blocks.
system.cpu0.dcache.tags.warmup_cycle                0                       # Cycle when the warmup percentage was hit.
system.cpu0.dcache.tags.occ_blocks::switch_cpus0.data    30.009871                       # Average occupied blocks per requestor
system.cpu0.dcache.tags.occ_blocks::switch_cpus_10.data   895.020632                       # Average occupied blocks per requestor
system.cpu0.dcache.tags.occ_percent::switch_cpus0.data     0.029307                       # Average percentage of cache occupancy
system.cpu0.dcache.tags.occ_percent::switch_cpus_10.data     0.874044                       # Average percentage of cache occupancy
system.cpu0.dcache.tags.occ_percent::total     0.903350                       # Average percentage of cache occupancy
system.cpu0.dcache.tags.occ_task_id_blocks::1024          983                       # Occupied blocks per task id
system.cpu0.dcache.tags.age_task_id_blocks_1024::3            6                       # Occupied blocks per task id
system.cpu0.dcache.tags.age_task_id_blocks_1024::4          977                       # Occupied blocks per task id
system.cpu0.dcache.tags.occ_task_id_percent::1024     0.959961                       # Percentage of cache occupancy per task id
system.cpu0.dcache.tags.tag_accesses          2256678                       # Number of tag accesses
system.cpu0.dcache.tags.data_accesses         2256678                       # Number of data accesses
system.cpu0.dcache.pwrStateResidencyTicks::UNDEFINED 6474640909500                       # Cumulative time (in ticks) in various power states
system.cpu0.dcache.ReadReq_hits::switch_cpus0.data         6199                       # number of ReadReq hits
system.cpu0.dcache.ReadReq_hits::switch_cpus_10.data       662918                       # number of ReadReq hits
system.cpu0.dcache.ReadReq_hits::total         669117                       # number of ReadReq hits
system.cpu0.dcache.WriteReq_hits::switch_cpus0.data         3461                       # number of WriteReq hits
system.cpu0.dcache.WriteReq_hits::switch_cpus_10.data       412618                       # number of WriteReq hits
system.cpu0.dcache.WriteReq_hits::total        416079                       # number of WriteReq hits
system.cpu0.dcache.SoftPFReq_hits::switch_cpus0.data            6                       # number of SoftPFReq hits
system.cpu0.dcache.SoftPFReq_hits::switch_cpus_10.data          105                       # number of SoftPFReq hits
system.cpu0.dcache.SoftPFReq_hits::total          111                       # number of SoftPFReq hits
system.cpu0.dcache.demand_hits::switch_cpus0.data         9660                       # number of demand (read+write) hits
system.cpu0.dcache.demand_hits::switch_cpus_10.data      1075536                       # number of demand (read+write) hits
system.cpu0.dcache.demand_hits::total         1085196                       # number of demand (read+write) hits
system.cpu0.dcache.overall_hits::switch_cpus0.data         9666                       # number of overall hits
system.cpu0.dcache.overall_hits::switch_cpus_10.data      1075641                       # number of overall hits
system.cpu0.dcache.overall_hits::total        1085307                       # number of overall hits
system.cpu0.dcache.ReadReq_misses::switch_cpus0.data           80                       # number of ReadReq misses
system.cpu0.dcache.ReadReq_misses::switch_cpus_10.data        21395                       # number of ReadReq misses
system.cpu0.dcache.ReadReq_misses::total        21475                       # number of ReadReq misses
system.cpu0.dcache.WriteReq_misses::switch_cpus0.data           67                       # number of WriteReq misses
system.cpu0.dcache.WriteReq_misses::switch_cpus_10.data         8476                       # number of WriteReq misses
system.cpu0.dcache.WriteReq_misses::total         8543                       # number of WriteReq misses
system.cpu0.dcache.SoftPFReq_misses::switch_cpus_10.data          441                       # number of SoftPFReq misses
system.cpu0.dcache.SoftPFReq_misses::total          441                       # number of SoftPFReq misses
system.cpu0.dcache.demand_misses::switch_cpus0.data          147                       # number of demand (read+write) misses
system.cpu0.dcache.demand_misses::switch_cpus_10.data        29871                       # number of demand (read+write) misses
system.cpu0.dcache.demand_misses::total         30018                       # number of demand (read+write) misses
system.cpu0.dcache.overall_misses::switch_cpus0.data          147                       # number of overall misses
system.cpu0.dcache.overall_misses::switch_cpus_10.data        30312                       # number of overall misses
system.cpu0.dcache.overall_misses::total        30459                       # number of overall misses
system.cpu0.dcache.ReadReq_miss_latency::switch_cpus_10.data    221618500                       # number of ReadReq miss cycles
system.cpu0.dcache.ReadReq_miss_latency::total    221618500                       # number of ReadReq miss cycles
system.cpu0.dcache.WriteReq_miss_latency::switch_cpus_10.data    112033000                       # number of WriteReq miss cycles
system.cpu0.dcache.WriteReq_miss_latency::total    112033000                       # number of WriteReq miss cycles
system.cpu0.dcache.demand_miss_latency::switch_cpus_10.data    333651500                       # number of demand (read+write) miss cycles
system.cpu0.dcache.demand_miss_latency::total    333651500                       # number of demand (read+write) miss cycles
system.cpu0.dcache.overall_miss_latency::switch_cpus_10.data    333651500                       # number of overall miss cycles
system.cpu0.dcache.overall_miss_latency::total    333651500                       # number of overall miss cycles
system.cpu0.dcache.ReadReq_accesses::switch_cpus0.data         6279                       # number of ReadReq accesses(hits+misses)
system.cpu0.dcache.ReadReq_accesses::switch_cpus_10.data       684313                       # number of ReadReq accesses(hits+misses)
system.cpu0.dcache.ReadReq_accesses::total       690592                       # number of ReadReq accesses(hits+misses)
system.cpu0.dcache.WriteReq_accesses::switch_cpus0.data         3528                       # number of WriteReq accesses(hits+misses)
system.cpu0.dcache.WriteReq_accesses::switch_cpus_10.data       421094                       # number of WriteReq accesses(hits+misses)
system.cpu0.dcache.WriteReq_accesses::total       424622                       # number of WriteReq accesses(hits+misses)
system.cpu0.dcache.SoftPFReq_accesses::switch_cpus0.data            6                       # number of SoftPFReq accesses(hits+misses)
system.cpu0.dcache.SoftPFReq_accesses::switch_cpus_10.data          546                       # number of SoftPFReq accesses(hits+misses)
system.cpu0.dcache.SoftPFReq_accesses::total          552                       # number of SoftPFReq accesses(hits+misses)
system.cpu0.dcache.demand_accesses::switch_cpus0.data         9807                       # number of demand (read+write) accesses
system.cpu0.dcache.demand_accesses::switch_cpus_10.data      1105407                       # number of demand (read+write) accesses
system.cpu0.dcache.demand_accesses::total      1115214                       # number of demand (read+write) accesses
system.cpu0.dcache.overall_accesses::switch_cpus0.data         9813                       # number of overall (read+write) accesses
system.cpu0.dcache.overall_accesses::switch_cpus_10.data      1105953                       # number of overall (read+write) accesses
system.cpu0.dcache.overall_accesses::total      1115766                       # number of overall (read+write) accesses
system.cpu0.dcache.ReadReq_miss_rate::switch_cpus0.data     0.012741                       # miss rate for ReadReq accesses
system.cpu0.dcache.ReadReq_miss_rate::switch_cpus_10.data     0.031265                       # miss rate for ReadReq accesses
system.cpu0.dcache.ReadReq_miss_rate::total     0.031097                       # miss rate for ReadReq accesses
system.cpu0.dcache.WriteReq_miss_rate::switch_cpus0.data     0.018991                       # miss rate for WriteReq accesses
system.cpu0.dcache.WriteReq_miss_rate::switch_cpus_10.data     0.020129                       # miss rate for WriteReq accesses
system.cpu0.dcache.WriteReq_miss_rate::total     0.020119                       # miss rate for WriteReq accesses
system.cpu0.dcache.SoftPFReq_miss_rate::switch_cpus_10.data     0.807692                       # miss rate for SoftPFReq accesses
system.cpu0.dcache.SoftPFReq_miss_rate::total     0.798913                       # miss rate for SoftPFReq accesses
system.cpu0.dcache.demand_miss_rate::switch_cpus0.data     0.014989                       # miss rate for demand accesses
system.cpu0.dcache.demand_miss_rate::switch_cpus_10.data     0.027023                       # miss rate for demand accesses
system.cpu0.dcache.demand_miss_rate::total     0.026917                       # miss rate for demand accesses
system.cpu0.dcache.overall_miss_rate::switch_cpus0.data     0.014980                       # miss rate for overall accesses
system.cpu0.dcache.overall_miss_rate::switch_cpus_10.data     0.027408                       # miss rate for overall accesses
system.cpu0.dcache.overall_miss_rate::total     0.027299                       # miss rate for overall accesses
system.cpu0.dcache.ReadReq_avg_miss_latency::switch_cpus_10.data 10358.424866                       # average ReadReq miss latency
system.cpu0.dcache.ReadReq_avg_miss_latency::total 10319.837020                       # average ReadReq miss latency
system.cpu0.dcache.WriteReq_avg_miss_latency::switch_cpus_10.data 13217.673431                       # average WriteReq miss latency
system.cpu0.dcache.WriteReq_avg_miss_latency::total 13114.011471                       # average WriteReq miss latency
system.cpu0.dcache.demand_avg_miss_latency::switch_cpus_10.data 11169.746577                       # average overall miss latency
system.cpu0.dcache.demand_avg_miss_latency::total 11115.047638                       # average overall miss latency
system.cpu0.dcache.overall_avg_miss_latency::switch_cpus_10.data 11007.241357                       # average overall miss latency
system.cpu0.dcache.overall_avg_miss_latency::total 10954.118651                       # average overall miss latency
system.cpu0.dcache.blocked_cycles::no_mshrs            0                       # number of cycles access was blocked
system.cpu0.dcache.blocked_cycles::no_targets            0                       # number of cycles access was blocked
system.cpu0.dcache.blocked::no_mshrs                0                       # number of cycles access was blocked
system.cpu0.dcache.blocked::no_targets              0                       # number of cycles access was blocked
system.cpu0.dcache.avg_blocked_cycles::no_mshrs          nan                       # average number of cycles each access was blocked
system.cpu0.dcache.avg_blocked_cycles::no_targets          nan                       # average number of cycles each access was blocked
system.cpu0.dcache.writebacks::writebacks         8819                       # number of writebacks
system.cpu0.dcache.writebacks::total             8819                       # number of writebacks
system.cpu0.dcache.WriteReq_mshr_hits::switch_cpus_10.data            5                       # number of WriteReq MSHR hits
system.cpu0.dcache.WriteReq_mshr_hits::total            5                       # number of WriteReq MSHR hits
system.cpu0.dcache.demand_mshr_hits::switch_cpus_10.data            5                       # number of demand (read+write) MSHR hits
system.cpu0.dcache.demand_mshr_hits::total            5                       # number of demand (read+write) MSHR hits
system.cpu0.dcache.overall_mshr_hits::switch_cpus_10.data            5                       # number of overall MSHR hits
system.cpu0.dcache.overall_mshr_hits::total            5                       # number of overall MSHR hits
system.cpu0.dcache.ReadReq_mshr_misses::switch_cpus_10.data        21395                       # number of ReadReq MSHR misses
system.cpu0.dcache.ReadReq_mshr_misses::total        21395                       # number of ReadReq MSHR misses
system.cpu0.dcache.WriteReq_mshr_misses::switch_cpus_10.data         8471                       # number of WriteReq MSHR misses
system.cpu0.dcache.WriteReq_mshr_misses::total         8471                       # number of WriteReq MSHR misses
system.cpu0.dcache.SoftPFReq_mshr_misses::switch_cpus_10.data          441                       # number of SoftPFReq MSHR misses
system.cpu0.dcache.SoftPFReq_mshr_misses::total          441                       # number of SoftPFReq MSHR misses
system.cpu0.dcache.demand_mshr_misses::switch_cpus_10.data        29866                       # number of demand (read+write) MSHR misses
system.cpu0.dcache.demand_mshr_misses::total        29866                       # number of demand (read+write) MSHR misses
system.cpu0.dcache.overall_mshr_misses::switch_cpus_10.data        30307                       # number of overall MSHR misses
system.cpu0.dcache.overall_mshr_misses::total        30307                       # number of overall MSHR misses
system.cpu0.dcache.ReadReq_mshr_uncacheable::switch_cpus_10.data           23                       # number of ReadReq MSHR uncacheable
system.cpu0.dcache.ReadReq_mshr_uncacheable::total           23                       # number of ReadReq MSHR uncacheable
system.cpu0.dcache.WriteReq_mshr_uncacheable::switch_cpus_10.data          471                       # number of WriteReq MSHR uncacheable
system.cpu0.dcache.WriteReq_mshr_uncacheable::total          471                       # number of WriteReq MSHR uncacheable
system.cpu0.dcache.overall_mshr_uncacheable_misses::switch_cpus_10.data          494                       # number of overall MSHR uncacheable misses
system.cpu0.dcache.overall_mshr_uncacheable_misses::total          494                       # number of overall MSHR uncacheable misses
system.cpu0.dcache.ReadReq_mshr_miss_latency::switch_cpus_10.data    200223500                       # number of ReadReq MSHR miss cycles
system.cpu0.dcache.ReadReq_mshr_miss_latency::total    200223500                       # number of ReadReq MSHR miss cycles
system.cpu0.dcache.WriteReq_mshr_miss_latency::switch_cpus_10.data    102911500                       # number of WriteReq MSHR miss cycles
system.cpu0.dcache.WriteReq_mshr_miss_latency::total    102911500                       # number of WriteReq MSHR miss cycles
system.cpu0.dcache.SoftPFReq_mshr_miss_latency::switch_cpus_10.data      4257000                       # number of SoftPFReq MSHR miss cycles
system.cpu0.dcache.SoftPFReq_mshr_miss_latency::total      4257000                       # number of SoftPFReq MSHR miss cycles
system.cpu0.dcache.demand_mshr_miss_latency::switch_cpus_10.data    303135000                       # number of demand (read+write) MSHR miss cycles
system.cpu0.dcache.demand_mshr_miss_latency::total    303135000                       # number of demand (read+write) MSHR miss cycles
system.cpu0.dcache.overall_mshr_miss_latency::switch_cpus_10.data    307392000                       # number of overall MSHR miss cycles
system.cpu0.dcache.overall_mshr_miss_latency::total    307392000                       # number of overall MSHR miss cycles
system.cpu0.dcache.ReadReq_mshr_uncacheable_latency::switch_cpus_10.data      3788500                       # number of ReadReq MSHR uncacheable cycles
system.cpu0.dcache.ReadReq_mshr_uncacheable_latency::total      3788500                       # number of ReadReq MSHR uncacheable cycles
system.cpu0.dcache.overall_mshr_uncacheable_latency::switch_cpus_10.data      3788500                       # number of overall MSHR uncacheable cycles
system.cpu0.dcache.overall_mshr_uncacheable_latency::total      3788500                       # number of overall MSHR uncacheable cycles
system.cpu0.dcache.ReadReq_mshr_miss_rate::switch_cpus_10.data     0.031265                       # mshr miss rate for ReadReq accesses
system.cpu0.dcache.ReadReq_mshr_miss_rate::total     0.030981                       # mshr miss rate for ReadReq accesses
system.cpu0.dcache.WriteReq_mshr_miss_rate::switch_cpus_10.data     0.020117                       # mshr miss rate for WriteReq accesses
system.cpu0.dcache.WriteReq_mshr_miss_rate::total     0.019950                       # mshr miss rate for WriteReq accesses
system.cpu0.dcache.SoftPFReq_mshr_miss_rate::switch_cpus_10.data     0.807692                       # mshr miss rate for SoftPFReq accesses
system.cpu0.dcache.SoftPFReq_mshr_miss_rate::total     0.798913                       # mshr miss rate for SoftPFReq accesses
system.cpu0.dcache.demand_mshr_miss_rate::switch_cpus_10.data     0.027018                       # mshr miss rate for demand accesses
system.cpu0.dcache.demand_mshr_miss_rate::total     0.026781                       # mshr miss rate for demand accesses
system.cpu0.dcache.overall_mshr_miss_rate::switch_cpus_10.data     0.027404                       # mshr miss rate for overall accesses
system.cpu0.dcache.overall_mshr_miss_rate::total     0.027163                       # mshr miss rate for overall accesses
system.cpu0.dcache.ReadReq_avg_mshr_miss_latency::switch_cpus_10.data  9358.424866                       # average ReadReq mshr miss latency
system.cpu0.dcache.ReadReq_avg_mshr_miss_latency::total  9358.424866                       # average ReadReq mshr miss latency
system.cpu0.dcache.WriteReq_avg_mshr_miss_latency::switch_cpus_10.data 12148.683745                       # average WriteReq mshr miss latency
system.cpu0.dcache.WriteReq_avg_mshr_miss_latency::total 12148.683745                       # average WriteReq mshr miss latency
system.cpu0.dcache.SoftPFReq_avg_mshr_miss_latency::switch_cpus_10.data  9653.061224                       # average SoftPFReq mshr miss latency
system.cpu0.dcache.SoftPFReq_avg_mshr_miss_latency::total  9653.061224                       # average SoftPFReq mshr miss latency
system.cpu0.dcache.demand_avg_mshr_miss_latency::switch_cpus_10.data 10149.835934                       # average overall mshr miss latency
system.cpu0.dcache.demand_avg_mshr_miss_latency::total 10149.835934                       # average overall mshr miss latency
system.cpu0.dcache.overall_avg_mshr_miss_latency::switch_cpus_10.data 10142.607318                       # average overall mshr miss latency
system.cpu0.dcache.overall_avg_mshr_miss_latency::total 10142.607318                       # average overall mshr miss latency
[...]
system.tol2bus.pkt_count_system.cpu4.icache.mem_side::system.l2.cpu_side        39411                       # Packet count per connected master and slave (bytes)
system.tol2bus.pkt_count_system.cpu4.dcache.mem_side::system.l2.cpu_side        53150                       # Packet count per connected master and slave (bytes)
system.tol2bus.pkt_count_system.cpu4.itb_walker_cache.mem_side::system.l2.cpu_side           35                       # Packet count per connected master and slave (bytes)
system.tol2bus.pkt_count_system.cpu4.dtb_walker_cache.mem_side::system.l2.cpu_side          248                       # Packet count per connected master and slave (bytes)
system.tol2bus.pkt_count_system.cpu5.icache.mem_side::system.l2.cpu_side        34077                       # Packet count per connected master and slave (bytes)
system.tol2bus.pkt_count_system.cpu5.dcache.mem_side::system.l2.cpu_side        47606                       # Packet count per connected master and slave (bytes)
system.tol2bus.pkt_count_system.cpu5.itb_walker_cache.mem_side::system.l2.cpu_side           38                       # Packet count per connected master and slave (bytes)
system.tol2bus.pkt_count_system.cpu5.dtb_walker_cache.mem_side::system.l2.cpu_side          233                       # Packet count per connected master and slave (bytes)
system.tol2bus.pkt_count_system.cpu6.icache.mem_side::system.l2.cpu_side        21945                       # Packet count per connected master and slave (bytes)
system.tol2bus.pkt_count_system.cpu6.dcache.mem_side::system.l2.cpu_side        12842                       # Packet count per connected master and slave (bytes)
system.tol2bus.pkt_count_system.cpu6.itb_walker_cache.mem_side::system.l2.cpu_side          138                       # Packet count per connected master and slave (bytes)
system.tol2bus.pkt_count_system.cpu6.dtb_walker_cache.mem_side::system.l2.cpu_side          281                       # Packet count per connected master and slave (bytes)
system.tol2bus.pkt_count_system.cpu7.icache.mem_side::system.l2.cpu_side        34113                       # Packet count per connected master and slave (bytes)
system.tol2bus.pkt_count_system.cpu7.dcache.mem_side::system.l2.cpu_side        49295                       # Packet count per connected master and slave (bytes)
system.tol2bus.pkt_count_system.cpu7.itb_walker_cache.mem_side::system.l2.cpu_side           30                       # Packet count per connected master and slave (bytes)
system.tol2bus.pkt_count_system.cpu7.dtb_walker_cache.mem_side::system.l2.cpu_side          226                       # Packet count per connected master and slave (bytes)
system.tol2bus.pkt_count::total                691661                       # Packet count per connected master and slave (bytes)
system.tol2bus.pkt_size_system.cpu0.icache.mem_side::system.l2.cpu_side      2600064                       # Cumulative packet size per connected master and slave (bytes)
system.tol2bus.pkt_size_system.cpu0.dcache.mem_side::system.l2.cpu_side      1352516                       # Cumulative packet size per connected master and slave (bytes)
system.tol2bus.pkt_size_system.cpu0.itb_walker_cache.mem_side::system.l2.cpu_side         9536                       # Cumulative packet size per connected master and slave (bytes)
system.tol2bus.pkt_size_system.cpu0.dtb_walker_cache.mem_side::system.l2.cpu_side        14208                       # Cumulative packet size per connected master and slave (bytes)
system.tol2bus.pkt_size_system.cpu1.icache.mem_side::system.l2.cpu_side      1551616                       # Cumulative packet size per connected master and slave (bytes)
system.tol2bus.pkt_size_system.cpu1.dcache.mem_side::system.l2.cpu_side       953384                       # Cumulative packet size per connected master and slave (bytes)
system.tol2bus.pkt_size_system.cpu1.itb_walker_cache.mem_side::system.l2.cpu_side         3520                       # Cumulative packet size per connected master and slave (bytes)
system.tol2bus.pkt_size_system.cpu1.dtb_walker_cache.mem_side::system.l2.cpu_side         7936                       # Cumulative packet size per connected master and slave (bytes)
system.tol2bus.pkt_size_system.cpu2.icache.mem_side::system.l2.cpu_side      1564032                       # Cumulative packet size per connected master and slave (bytes)
system.tol2bus.pkt_size_system.cpu2.dcache.mem_side::system.l2.cpu_side       919452                       # Cumulative packet size per connected master and slave (bytes)
system.tol2bus.pkt_size_system.cpu2.itb_walker_cache.mem_side::system.l2.cpu_side          512                       # Cumulative packet size per connected master and slave (bytes)
system.tol2bus.pkt_size_system.cpu2.dtb_walker_cache.mem_side::system.l2.cpu_side         4672                       # Cumulative packet size per connected master and slave (bytes)
system.tol2bus.pkt_size_system.cpu3.icache.mem_side::system.l2.cpu_side      1525760                       # Cumulative packet size per connected master and slave (bytes)
system.tol2bus.pkt_size_system.cpu3.dcache.mem_side::system.l2.cpu_side       942672                       # Cumulative packet size per connected master and slave (bytes)
system.tol2bus.pkt_size_system.cpu3.itb_walker_cache.mem_side::system.l2.cpu_side          384                       # Cumulative packet size per connected master and slave (bytes)
system.tol2bus.pkt_size_system.cpu3.dtb_walker_cache.mem_side::system.l2.cpu_side         4992                       # Cumulative packet size per connected master and slave (bytes)
system.tol2bus.pkt_size_system.cpu4.icache.mem_side::system.l2.cpu_side      1681536                       # Cumulative packet size per connected master and slave (bytes)
system.tol2bus.pkt_size_system.cpu4.dcache.mem_side::system.l2.cpu_side       901122                       # Cumulative packet size per connected master and slave (bytes)
system.tol2bus.pkt_size_system.cpu4.itb_walker_cache.mem_side::system.l2.cpu_side          384                       # Cumulative packet size per connected master and slave (bytes)
system.tol2bus.pkt_size_system.cpu4.dtb_walker_cache.mem_side::system.l2.cpu_side         4544                       # Cumulative packet size per connected master and slave (bytes)
system.tol2bus.pkt_size_system.cpu5.icache.mem_side::system.l2.cpu_side      1453952                       # Cumulative packet size per connected master and slave (bytes)
system.tol2bus.pkt_size_system.cpu5.dcache.mem_side::system.l2.cpu_side       824358                       # Cumulative packet size per connected master and slave (bytes)
system.tol2bus.pkt_size_system.cpu5.itb_walker_cache.mem_side::system.l2.cpu_side          192                       # Cumulative packet size per connected master and slave (bytes)
system.tol2bus.pkt_size_system.cpu5.dtb_walker_cache.mem_side::system.l2.cpu_side         4224                       # Cumulative packet size per connected master and slave (bytes)
system.tol2bus.pkt_size_system.cpu6.icache.mem_side::system.l2.cpu_side       936320                       # Cumulative packet size per connected master and slave (bytes)
system.tol2bus.pkt_size_system.cpu6.dcache.mem_side::system.l2.cpu_side       180970                       # Cumulative packet size per connected master and slave (bytes)
system.tol2bus.pkt_size_system.cpu6.itb_walker_cache.mem_side::system.l2.cpu_side         1472                       # Cumulative packet size per connected master and slave (bytes)
system.tol2bus.pkt_size_system.cpu6.dtb_walker_cache.mem_side::system.l2.cpu_side         5120                       # Cumulative packet size per connected master and slave (bytes)
system.tol2bus.pkt_size_system.cpu7.icache.mem_side::system.l2.cpu_side      1455488                       # Cumulative packet size per connected master and slave (bytes)
system.tol2bus.pkt_size_system.cpu7.dcache.mem_side::system.l2.cpu_side       846396                       # Cumulative packet size per connected master and slave (bytes)
system.tol2bus.pkt_size_system.cpu7.itb_walker_cache.mem_side::system.l2.cpu_side          128                       # Cumulative packet size per connected master and slave (bytes)
system.tol2bus.pkt_size_system.cpu7.dtb_walker_cache.mem_side::system.l2.cpu_side         4544                       # Cumulative packet size per connected master and slave (bytes)
system.tol2bus.pkt_size::total               19756006                       # Cumulative packet size per connected master and slave (bytes)
system.tol2bus.snoops                          123912                       # Total snoops (count)
system.tol2bus.snoopTraffic                   6667392                       # Total snoop traffic (bytes)
system.tol2bus.snoop_fanout::samples           306298                       # Request fanout histogram
system.tol2bus.snoop_fanout::mean            2.770459                       # Request fanout histogram
system.tol2bus.snoop_fanout::stdev           2.814113                       # Request fanout histogram
system.tol2bus.snoop_fanout::underflows             0      0.00%      0.00% # Request fanout histogram
system.tol2bus.snoop_fanout::0                  75931     24.79%     24.79% # Request fanout histogram
system.tol2bus.snoop_fanout::1                  86243     28.16%     52.95% # Request fanout histogram
system.tol2bus.snoop_fanout::2                  32832     10.72%     63.67% # Request fanout histogram
system.tol2bus.snoop_fanout::3                   8142      2.66%     66.32% # Request fanout histogram
system.tol2bus.snoop_fanout::4                   6091      1.99%     68.31% # Request fanout histogram
system.tol2bus.snoop_fanout::5                   4575      1.49%     69.81% # Request fanout histogram
system.tol2bus.snoop_fanout::6                  26096      8.52%     78.33% # Request fanout histogram
system.tol2bus.snoop_fanout::7                  65785     21.48%     99.80% # Request fanout histogram
system.tol2bus.snoop_fanout::8                     67      0.02%     99.83% # Request fanout histogram
system.tol2bus.snoop_fanout::9                     23      0.01%     99.83% # Request fanout histogram
system.tol2bus.snoop_fanout::10                    94      0.03%     99.86% # Request fanout histogram
system.tol2bus.snoop_fanout::11                    22      0.01%     99.87% # Request fanout histogram
system.tol2bus.snoop_fanout::12                    32      0.01%     99.88% # Request fanout histogram
system.tol2bus.snoop_fanout::13                    64      0.02%     99.90% # Request fanout histogram
system.tol2bus.snoop_fanout::14                    77      0.03%     99.93% # Request fanout histogram
system.tol2bus.snoop_fanout::15                    76      0.02%     99.95% # Request fanout histogram
system.tol2bus.snoop_fanout::16                    14      0.00%     99.96% # Request fanout histogram
system.tol2bus.snoop_fanout::17                    52      0.02%     99.97% # Request fanout histogram
system.tol2bus.snoop_fanout::18                    82      0.03%    100.00% # Request fanout histogram
system.tol2bus.snoop_fanout::19                     0      0.00%    100.00% # Request fanout histogram
system.tol2bus.snoop_fanout::20                     0      0.00%    100.00% # Request fanout histogram
system.tol2bus.snoop_fanout::21                     0      0.00%    100.00% # Request fanout histogram
system.tol2bus.snoop_fanout::22                     0      0.00%    100.00% # Request fanout histogram
system.tol2bus.snoop_fanout::23                     0      0.00%    100.00% # Request fanout histogram
system.tol2bus.snoop_fanout::24                     0      0.00%    100.00% # Request fanout histogram
system.tol2bus.snoop_fanout::25                     0      0.00%    100.00% # Request fanout histogram
system.tol2bus.snoop_fanout::26                     0      0.00%    100.00% # Request fanout histogram
system.tol2bus.snoop_fanout::27                     0      0.00%    100.00% # Request fanout histogram
system.tol2bus.snoop_fanout::28                     0      0.00%    100.00% # Request fanout histogram
system.tol2bus.snoop_fanout::29                     0      0.00%    100.00% # Request fanout histogram
system.tol2bus.snoop_fanout::30                     0      0.00%    100.00% # Request fanout histogram
system.tol2bus.snoop_fanout::31                     0      0.00%    100.00% # Request fanout histogram
system.tol2bus.snoop_fanout::32                     0      0.00%    100.00% # Request fanout histogram
system.tol2bus.snoop_fanout::overflows              0      0.00%    100.00% # Request fanout histogram
system.tol2bus.snoop_fanout::min_value              0                       # Request fanout histogram
system.tol2bus.snoop_fanout::max_value             18                       # Request fanout histogram
system.tol2bus.snoop_fanout::total             306298                       # Request fanout histogram
system.tol2bus.reqLayer0.occupancy          397073000                       # Layer occupancy (ticks)
system.tol2bus.reqLayer0.utilization              0.0                       # Layer utilization (%)
system.tol2bus.snoopLayer0.occupancy           224976                       # Layer occupancy (ticks)
system.tol2bus.snoopLayer0.utilization            0.0                       # Layer utilization (%)
system.tol2bus.respLayer0.occupancy          30155997                       # Layer occupancy (ticks)
system.tol2bus.respLayer0.utilization             0.0                       # Layer utilization (%)
system.tol2bus.respLayer1.occupancy          40441497                       # Layer occupancy (ticks)
system.tol2bus.respLayer1.utilization             0.0                       # Layer utilization (%)
system.tol2bus.respLayer2.occupancy            409500                       # Layer occupancy (ticks)
system.tol2bus.respLayer2.utilization             0.0                       # Layer utilization (%)
system.tol2bus.respLayer3.occupancy            502500                       # Layer occupancy (ticks)
system.tol2bus.respLayer3.utilization             0.0                       # Layer utilization (%)
system.tol2bus.respLayer4.occupancy          18184497                       # Layer occupancy (ticks)
system.tol2bus.respLayer4.utilization             0.0                       # Layer utilization (%)
system.tol2bus.respLayer5.occupancy          34375999                       # Layer occupancy (ticks)
system.tol2bus.respLayer5.utilization             0.0                       # Layer utilization (%)
system.tol2bus.respLayer6.occupancy            291000                       # Layer occupancy (ticks)
system.tol2bus.respLayer6.utilization             0.0                       # Layer utilization (%)
system.tol2bus.respLayer7.occupancy            316500                       # Layer occupancy (ticks)
system.tol2bus.respLayer7.utilization             0.0                       # Layer utilization (%)
system.tol2bus.respLayer8.occupancy          18328500                       # Layer occupancy (ticks)
system.tol2bus.respLayer8.utilization             0.0                       # Layer utilization (%)
system.tol2bus.respLayer9.occupancy          37229499                       # Layer occupancy (ticks)
system.tol2bus.respLayer9.utilization             0.0                       # Layer utilization (%)
system.tol2bus.respLayer10.occupancy            46500                       # Layer occupancy (ticks)
system.tol2bus.respLayer10.utilization            0.0                       # Layer utilization (%)
system.tol2bus.respLayer11.occupancy           147000                       # Layer occupancy (ticks)
system.tol2bus.respLayer11.utilization            0.0                       # Layer utilization (%)
system.tol2bus.respLayer12.occupancy         17880000                       # Layer occupancy (ticks)
system.tol2bus.respLayer12.utilization            0.0                       # Layer utilization (%)
system.tol2bus.respLayer13.occupancy         37964000                       # Layer occupancy (ticks)
system.tol2bus.respLayer13.utilization            0.0                       # Layer utilization (%)
system.tol2bus.respLayer14.occupancy            33000                       # Layer occupancy (ticks)
system.tol2bus.respLayer14.utilization            0.0                       # Layer utilization (%)
system.tol2bus.respLayer15.occupancy           160500                       # Layer occupancy (ticks)
system.tol2bus.respLayer15.utilization            0.0                       # Layer utilization (%)
system.tol2bus.respLayer16.occupancy         19705999                       # Layer occupancy (ticks)
system.tol2bus.respLayer16.utilization            0.0                       # Layer utilization (%)
system.tol2bus.respLayer17.occupancy         37178999                       # Layer occupancy (ticks)
system.tol2bus.respLayer17.utilization            0.0                       # Layer utilization (%)
system.tol2bus.respLayer18.occupancy            27000                       # Layer occupancy (ticks)
system.tol2bus.respLayer18.utilization            0.0                       # Layer utilization (%)
system.tol2bus.respLayer19.occupancy           147000                       # Layer occupancy (ticks)
system.tol2bus.respLayer19.utilization            0.0                       # Layer utilization (%)
system.tol2bus.respLayer20.occupancy         17038999                       # Layer occupancy (ticks)
system.tol2bus.respLayer20.utilization            0.0                       # Layer utilization (%)
system.tol2bus.respLayer21.occupancy         33082498                       # Layer occupancy (ticks)
system.tol2bus.respLayer21.utilization            0.0                       # Layer utilization (%)
system.tol2bus.respLayer22.occupancy            33000                       # Layer occupancy (ticks)
system.tol2bus.respLayer22.utilization            0.0                       # Layer utilization (%)
system.tol2bus.respLayer23.occupancy           138998                       # Layer occupancy (ticks)
system.tol2bus.respLayer23.utilization            0.0                       # Layer utilization (%)
system.tol2bus.respLayer24.occupancy         10973997                       # Layer occupancy (ticks)
system.tol2bus.respLayer24.utilization            0.0                       # Layer utilization (%)
system.tol2bus.respLayer25.occupancy         10202499                       # Layer occupancy (ticks)
system.tol2bus.respLayer25.utilization            0.0                       # Layer utilization (%)
system.tol2bus.respLayer26.occupancy            90000                       # Layer occupancy (ticks)
system.tol2bus.respLayer26.utilization            0.0                       # Layer utilization (%)
system.tol2bus.respLayer27.occupancy           162000                       # Layer occupancy (ticks)
system.tol2bus.respLayer27.utilization            0.0                       # Layer utilization (%)
system.tol2bus.respLayer28.occupancy         17057498                       # Layer occupancy (ticks)
system.tol2bus.respLayer28.utilization            0.0                       # Layer utilization (%)
system.tol2bus.respLayer29.occupancy         34510500                       # Layer occupancy (ticks)
system.tol2bus.respLayer29.utilization            0.0                       # Layer utilization (%)
system.tol2bus.respLayer30.occupancy            27000                       # Layer occupancy (ticks)
system.tol2bus.respLayer30.utilization            0.0                       # Layer utilization (%)
system.tol2bus.respLayer31.occupancy           130500                       # Layer occupancy (ticks)
system.tol2bus.respLayer31.utilization            0.0                       # Layer utilization (%)

---------- End Simulation Statistics   ----------
