
---------- Begin Simulation Statistics ----------
sim_seconds                                  0.105859                       # Number of seconds simulated
sim_ticks                                105858767000                       # Number of ticks simulated
final_tick                               105858767000                       # Number of ticks from beginning of simulation (restored from checkpoints and never reset)
sim_freq                                 1000000000000                       # Frequency of simulated ticks
host_inst_rate                                  69350                       # Simulator instruction rate (inst/s)
host_op_rate                                    72158                       # Simulator op (including micro ops) rate (op/s)
host_tick_rate                               18227882                       # Simulator tick rate (ticks/s)
host_mem_usage                                 666344                       # Number of bytes of host memory used
host_seconds                                  5807.52                       # Real time elapsed on the host
sim_insts                                   402752520                       # Number of instructions simulated
sim_ops                                     419059513                       # Number of ops (including micro ops) simulated
system.voltage_domain.voltage                       1                       # Voltage in Volts
system.clk_domain.clock                          1000                       # Clock period in ticks
system.mem_ctrls.pwrStateResidencyTicks::UNDEFINED 105858767000                       # Cumulative time (in ticks) in various power states
system.mem_ctrls.bytes_read::cpu.inst           70976                       # Number of bytes read from this memory
system.mem_ctrls.bytes_read::cpu.data           33280                       # Number of bytes read from this memory
system.mem_ctrls.bytes_read::l2.prefetcher        98048                       # Number of bytes read from this memory
system.mem_ctrls.bytes_read::total             202304                       # Number of bytes read from this memory
system.mem_ctrls.bytes_inst_read::cpu.inst        70976                       # Number of instructions bytes read from this memory
system.mem_ctrls.bytes_inst_read::total         70976                       # Number of instructions bytes read from this memory
system.mem_ctrls.num_reads::cpu.inst             1109                       # Number of read requests responded to by this memory
system.mem_ctrls.num_reads::cpu.data              520                       # Number of read requests responded to by this memory
system.mem_ctrls.num_reads::l2.prefetcher         1532                       # Number of read requests responded to by this memory
system.mem_ctrls.num_reads::total                3161                       # Number of read requests responded to by this memory
system.mem_ctrls.bw_read::cpu.inst             670478                       # Total read bandwidth from this memory (bytes/s)
system.mem_ctrls.bw_read::cpu.data             314381                       # Total read bandwidth from this memory (bytes/s)
system.mem_ctrls.bw_read::l2.prefetcher        926215                       # Total read bandwidth from this memory (bytes/s)
system.mem_ctrls.bw_read::total               1911075                       # Total read bandwidth from this memory (bytes/s)
system.mem_ctrls.bw_inst_read::cpu.inst        670478                       # Instruction read bandwidth from this memory (bytes/s)
system.mem_ctrls.bw_inst_read::total           670478                       # Instruction read bandwidth from this memory (bytes/s)
system.mem_ctrls.bw_total::cpu.inst            670478                       # Total bandwidth to/from this memory (bytes/s)
system.mem_ctrls.bw_total::cpu.data            314381                       # Total bandwidth to/from this memory (bytes/s)
system.mem_ctrls.bw_total::l2.prefetcher       926215                       # Total bandwidth to/from this memory (bytes/s)
system.mem_ctrls.bw_total::total              1911075                       # Total bandwidth to/from this memory (bytes/s)
system.mem_ctrls.readReqs                        3161                       # Number of read requests accepted
system.mem_ctrls.writeReqs                          0                       # Number of write requests accepted
system.mem_ctrls.readBursts                      3161                       # Number of DRAM read bursts, including those serviced by the write queue
system.mem_ctrls.writeBursts                        0                       # Number of DRAM write bursts, including those merged in the write queue
system.mem_ctrls.bytesReadDRAM                 202304                       # Total number of bytes read from DRAM
system.mem_ctrls.bytesReadWrQ                       0                       # Total number of bytes read from write queue
system.mem_ctrls.bytesWritten                       0                       # Total number of bytes written to DRAM
system.mem_ctrls.bytesReadSys                  202304                       # Total read bytes from the system interface side
system.mem_ctrls.bytesWrittenSys                    0                       # Total written bytes from the system interface side
system.mem_ctrls.servicedByWrQ                      0                       # Number of DRAM read bursts serviced by the write queue
system.mem_ctrls.mergedWrBursts                     0                       # Number of DRAM write bursts merged with an existing one
system.mem_ctrls.neitherReadNorWriteReqs            0                       # Number of requests that are neither read nor write
system.mem_ctrls.perBankRdBursts::0               119                       # Per bank write bursts
system.mem_ctrls.perBankRdBursts::1               159                       # Per bank write bursts
system.mem_ctrls.perBankRdBursts::2               229                       # Per bank write bursts
system.mem_ctrls.perBankRdBursts::3               200                       # Per bank write bursts
system.mem_ctrls.perBankRdBursts::4               252                       # Per bank write bursts
system.mem_ctrls.perBankRdBursts::5               283                       # Per bank write bursts
system.mem_ctrls.perBankRdBursts::6               210                       # Per bank write bursts
system.mem_ctrls.perBankRdBursts::7               206                       # Per bank write bursts
system.mem_ctrls.perBankRdBursts::8               236                       # Per bank write bursts
system.mem_ctrls.perBankRdBursts::9               140                       # Per bank write bursts
system.mem_ctrls.perBankRdBursts::10              245                       # Per bank write bursts
system.mem_ctrls.perBankRdBursts::11              159                       # Per bank write bursts
system.mem_ctrls.perBankRdBursts::12              209                       # Per bank write bursts
system.mem_ctrls.perBankRdBursts::13              409                       # Per bank write bursts
system.mem_ctrls.perBankRdBursts::14               71                       # Per bank write bursts
system.mem_ctrls.perBankRdBursts::15               34                       # Per bank write bursts
system.mem_ctrls.perBankWrBursts::0                 0                       # Per bank write bursts
system.mem_ctrls.perBankWrBursts::1                 0                       # Per bank write bursts
system.mem_ctrls.perBankWrBursts::2                 0                       # Per bank write bursts
system.mem_ctrls.perBankWrBursts::3                 0                       # Per bank write bursts
system.mem_ctrls.perBankWrBursts::4                 0                       # Per bank write bursts
system.mem_ctrls.perBankWrBursts::5                 0                       # Per bank write bursts
system.mem_ctrls.perBankWrBursts::6                 0                       # Per bank write bursts
system.mem_ctrls.perBankWrBursts::7                 0                       # Per bank write bursts
system.mem_ctrls.perBankWrBursts::8                 0                       # Per bank write bursts
system.mem_ctrls.perBankWrBursts::9                 0                       # Per bank write bursts
system.mem_ctrls.perBankWrBursts::10                0                       # Per bank write bursts
system.mem_ctrls.perBankWrBursts::11                0                       # Per bank write bursts
system.mem_ctrls.perBankWrBursts::12                0                       # Per bank write bursts
system.mem_ctrls.perBankWrBursts::13                0                       # Per bank write bursts
system.mem_ctrls.perBankWrBursts::14                0                       # Per bank write bursts
system.mem_ctrls.perBankWrBursts::15                0                       # Per bank write bursts
system.mem_ctrls.numRdRetry                         0                       # Number of times read queue was full causing retry
system.mem_ctrls.numWrRetry                         0                       # Number of times write queue was full causing retry
system.mem_ctrls.totGap                  105858687500                       # Total gap between requests
system.mem_ctrls.readPktSize::0                     0                       # Read request sizes (log2)
system.mem_ctrls.readPktSize::1                     0                       # Read request sizes (log2)
system.mem_ctrls.readPktSize::2                     0                       # Read request sizes (log2)
system.mem_ctrls.readPktSize::3                     0                       # Read request sizes (log2)
system.mem_ctrls.readPktSize::4                     0                       # Read request sizes (log2)
system.mem_ctrls.readPktSize::5                     0                       # Read request sizes (log2)
system.mem_ctrls.readPktSize::6                  3161                       # Read request sizes (log2)
system.mem_ctrls.writePktSize::0                    0                       # Write request sizes (log2)
system.mem_ctrls.writePktSize::1                    0                       # Write request sizes (log2)
system.mem_ctrls.writePktSize::2                    0                       # Write request sizes (log2)
system.mem_ctrls.writePktSize::3                    0                       # Write request sizes (log2)
system.mem_ctrls.writePktSize::4                    0                       # Write request sizes (log2)
system.mem_ctrls.writePktSize::5                    0                       # Write request sizes (log2)
system.mem_ctrls.writePktSize::6                    0                       # Write request sizes (log2)
system.mem_ctrls.rdQLenPdf::0                    1268                       # What read queue length does an incoming req see
system.mem_ctrls.rdQLenPdf::1                    1215                       # What read queue length does an incoming req see
system.mem_ctrls.rdQLenPdf::2                     301                       # What read queue length does an incoming req see
system.mem_ctrls.rdQLenPdf::3                     141                       # What read queue length does an incoming req see
system.mem_ctrls.rdQLenPdf::4                      81                       # What read queue length does an incoming req see
system.mem_ctrls.rdQLenPdf::5                      48                       # What read queue length does an incoming req see
system.mem_ctrls.rdQLenPdf::6                      35                       # What read queue length does an incoming req see
system.mem_ctrls.rdQLenPdf::7                      34                       # What read queue length does an incoming req see
system.mem_ctrls.rdQLenPdf::8                      29                       # What read queue length does an incoming req see
system.mem_ctrls.rdQLenPdf::9                       4                       # What read queue length does an incoming req see
system.mem_ctrls.rdQLenPdf::10                      3                       # What read queue length does an incoming req see
system.mem_ctrls.rdQLenPdf::11                      2                       # What read queue length does an incoming req see
system.mem_ctrls.rdQLenPdf::12                      0                       # What read queue length does an incoming req see
system.mem_ctrls.rdQLenPdf::13                      0                       # What read queue length does an incoming req see
system.mem_ctrls.rdQLenPdf::14                      0                       # What read queue length does an incoming req see
system.mem_ctrls.rdQLenPdf::15                      0                       # What read queue length does an incoming req see
system.mem_ctrls.rdQLenPdf::16                      0                       # What read queue length does an incoming req see
system.mem_ctrls.rdQLenPdf::17                      0                       # What read queue length does an incoming req see
system.mem_ctrls.rdQLenPdf::18                      0                       # What read queue length does an incoming req see
system.mem_ctrls.rdQLenPdf::19                      0                       # What read queue length does an incoming req see
system.mem_ctrls.rdQLenPdf::20                      0                       # What read queue length does an incoming req see
system.mem_ctrls.rdQLenPdf::21                      0                       # What read queue length does an incoming req see
system.mem_ctrls.rdQLenPdf::22                      0                       # What read queue length does an incoming req see
system.mem_ctrls.rdQLenPdf::23                      0                       # What read queue length does an incoming req see
system.mem_ctrls.rdQLenPdf::24                      0                       # What read queue length does an incoming req see
system.mem_ctrls.rdQLenPdf::25                      0                       # What read queue length does an incoming req see
system.mem_ctrls.rdQLenPdf::26                      0                       # What read queue length does an incoming req see
system.mem_ctrls.rdQLenPdf::27                      0                       # What read queue length does an incoming req see
system.mem_ctrls.rdQLenPdf::28                      0                       # What read queue length does an incoming req see
system.mem_ctrls.rdQLenPdf::29                      0                       # What read queue length does an incoming req see
system.mem_ctrls.rdQLenPdf::30                      0                       # What read queue length does an incoming req see
system.mem_ctrls.rdQLenPdf::31                      0                       # What read queue length does an incoming req see
system.mem_ctrls.wrQLenPdf::0                       0                       # What write queue length does an incoming req see
system.mem_ctrls.wrQLenPdf::1                       0                       # What write queue length does an incoming req see
system.mem_ctrls.wrQLenPdf::2                       0                       # What write queue length does an incoming req see
system.mem_ctrls.wrQLenPdf::3                       0                       # What write queue length does an incoming req see
system.mem_ctrls.wrQLenPdf::4                       0                       # What write queue length does an incoming req see
system.mem_ctrls.wrQLenPdf::5                       0                       # What write queue length does an incoming req see
system.mem_ctrls.wrQLenPdf::6                       0                       # What write queue length does an incoming req see
system.mem_ctrls.wrQLenPdf::7                       0                       # What write queue length does an incoming req see
system.mem_ctrls.wrQLenPdf::8                       0                       # What write queue length does an incoming req see
system.mem_ctrls.wrQLenPdf::9                       0                       # What write queue length does an incoming req see
system.mem_ctrls.wrQLenPdf::10                      0                       # What write queue length does an incoming req see
system.mem_ctrls.wrQLenPdf::11                      0                       # What write queue length does an incoming req see
system.mem_ctrls.wrQLenPdf::12                      0                       # What write queue length does an incoming req see
system.mem_ctrls.wrQLenPdf::13                      0                       # What write queue length does an incoming req see
system.mem_ctrls.wrQLenPdf::14                      0                       # What write queue length does an incoming req see
system.mem_ctrls.wrQLenPdf::15                      0                       # What write queue length does an incoming req see
system.mem_ctrls.wrQLenPdf::16                      0                       # What write queue length does an incoming req see
system.mem_ctrls.wrQLenPdf::17                      0                       # What write queue length does an incoming req see
system.mem_ctrls.wrQLenPdf::18                      0                       # What write queue length does an incoming req see
system.mem_ctrls.wrQLenPdf::19                      0                       # What write queue length does an incoming req see
system.mem_ctrls.wrQLenPdf::20                      0                       # What write queue length does an incoming req see
system.mem_ctrls.wrQLenPdf::21                      0                       # What write queue length does an incoming req see
system.mem_ctrls.wrQLenPdf::22                      0                       # What write queue length does an incoming req see
system.mem_ctrls.wrQLenPdf::23                      0                       # What write queue length does an incoming req see
system.mem_ctrls.wrQLenPdf::24                      0                       # What write queue length does an incoming req see
system.mem_ctrls.wrQLenPdf::25                      0                       # What write queue length does an incoming req see
system.mem_ctrls.wrQLenPdf::26                      0                       # What write queue length does an incoming req see
system.mem_ctrls.wrQLenPdf::27                      0                       # What write queue length does an incoming req see
system.mem_ctrls.wrQLenPdf::28                      0                       # What write queue length does an incoming req see
system.mem_ctrls.wrQLenPdf::29                      0                       # What write queue length does an incoming req see
system.mem_ctrls.wrQLenPdf::30                      0                       # What write queue length does an incoming req see
system.mem_ctrls.wrQLenPdf::31                      0                       # What write queue length does an incoming req see
system.mem_ctrls.wrQLenPdf::32                      0                       # What write queue length does an incoming req see
system.mem_ctrls.wrQLenPdf::33                      0                       # What write queue length does an incoming req see
system.mem_ctrls.wrQLenPdf::34                      0                       # What write queue length does an incoming req see
system.mem_ctrls.wrQLenPdf::35                      0                       # What write queue length does an incoming req see
system.mem_ctrls.wrQLenPdf::36                      0                       # What write queue length does an incoming req see
system.mem_ctrls.wrQLenPdf::37                      0                       # What write queue length does an incoming req see
system.mem_ctrls.wrQLenPdf::38                      0                       # What write queue length does an incoming req see
system.mem_ctrls.wrQLenPdf::39                      0                       # What write queue length does an incoming req see
system.mem_ctrls.wrQLenPdf::40                      0                       # What write queue length does an incoming req see
system.mem_ctrls.wrQLenPdf::41                      0                       # What write queue length does an incoming req see
system.mem_ctrls.wrQLenPdf::42                      0                       # What write queue length does an incoming req see
system.mem_ctrls.wrQLenPdf::43                      0                       # What write queue length does an incoming req see
system.mem_ctrls.wrQLenPdf::44                      0                       # What write queue length does an incoming req see
system.mem_ctrls.wrQLenPdf::45                      0                       # What write queue length does an incoming req see
system.mem_ctrls.wrQLenPdf::46                      0                       # What write queue length does an incoming req see
system.mem_ctrls.wrQLenPdf::47                      0                       # What write queue length does an incoming req see
system.mem_ctrls.wrQLenPdf::48                      0                       # What write queue length does an incoming req see
system.mem_ctrls.wrQLenPdf::49                      0                       # What write queue length does an incoming req see
system.mem_ctrls.wrQLenPdf::50                      0                       # What write queue length does an incoming req see
system.mem_ctrls.wrQLenPdf::51                      0                       # What write queue length does an incoming req see
system.mem_ctrls.wrQLenPdf::52                      0                       # What write queue length does an incoming req see
system.mem_ctrls.wrQLenPdf::53                      0                       # What write queue length does an incoming req see
system.mem_ctrls.wrQLenPdf::54                      0                       # What write queue length does an incoming req see
system.mem_ctrls.wrQLenPdf::55                      0                       # What write queue length does an incoming req see
system.mem_ctrls.wrQLenPdf::56                      0                       # What write queue length does an incoming req see
system.mem_ctrls.wrQLenPdf::57                      0                       # What write queue length does an incoming req see
system.mem_ctrls.wrQLenPdf::58                      0                       # What write queue length does an incoming req see
system.mem_ctrls.wrQLenPdf::59                      0                       # What write queue length does an incoming req see
system.mem_ctrls.wrQLenPdf::60                      0                       # What write queue length does an incoming req see
system.mem_ctrls.wrQLenPdf::61                      0                       # What write queue length does an incoming req see
system.mem_ctrls.wrQLenPdf::62                      0                       # What write queue length does an incoming req see
system.mem_ctrls.wrQLenPdf::63                      0                       # What write queue length does an incoming req see
system.mem_ctrls.bytesPerActivate::samples          551                       # Bytes accessed per row activation
system.mem_ctrls.bytesPerActivate::mean    364.370236                       # Bytes accessed per row activation
system.mem_ctrls.bytesPerActivate::gmean   199.271941                       # Bytes accessed per row activation
system.mem_ctrls.bytesPerActivate::stdev   380.328290                       # Bytes accessed per row activation
system.mem_ctrls.bytesPerActivate::0-127          214     38.84%     38.84% # Bytes accessed per row activation
system.mem_ctrls.bytesPerActivate::128-255          103     18.69%     57.53% # Bytes accessed per row activation
system.mem_ctrls.bytesPerActivate::256-383           46      8.35%     65.88% # Bytes accessed per row activation
system.mem_ctrls.bytesPerActivate::384-511           29      5.26%     71.14% # Bytes accessed per row activation
system.mem_ctrls.bytesPerActivate::512-639           15      2.72%     73.87% # Bytes accessed per row activation
system.mem_ctrls.bytesPerActivate::640-767           18      3.27%     77.13% # Bytes accessed per row activation
system.mem_ctrls.bytesPerActivate::768-895            4      0.73%     77.86% # Bytes accessed per row activation
system.mem_ctrls.bytesPerActivate::896-1023            9      1.63%     79.49% # Bytes accessed per row activation
system.mem_ctrls.bytesPerActivate::1024-1151          113     20.51%    100.00% # Bytes accessed per row activation
system.mem_ctrls.bytesPerActivate::total          551                       # Bytes accessed per row activation
system.mem_ctrls.totQLat                    129895571                       # Total ticks spent queuing
system.mem_ctrls.totMemAccLat               189164321                       # Total ticks spent from burst creation until serviced by the DRAM
system.mem_ctrls.totBusLat                   15805000                       # Total ticks spent in databus transfers
system.mem_ctrls.avgQLat                     41093.19                       # Average queueing delay per DRAM burst
system.mem_ctrls.avgBusLat                    5000.00                       # Average bus latency per DRAM burst
system.mem_ctrls.avgMemAccLat                59843.19                       # Average memory access latency per DRAM burst
system.mem_ctrls.avgRdBW                         1.91                       # Average DRAM read bandwidth in MiByte/s
system.mem_ctrls.avgWrBW                         0.00                       # Average achieved write bandwidth in MiByte/s
system.mem_ctrls.avgRdBWSys                      1.91                       # Average system read bandwidth in MiByte/s
system.mem_ctrls.avgWrBWSys                      0.00                       # Average system write bandwidth in MiByte/s
system.mem_ctrls.peakBW                      12800.00                       # Theoretical peak bandwidth in MiByte/s
system.mem_ctrls.busUtil                         0.01                       # Data bus utilization in percentage
system.mem_ctrls.busUtilRead                     0.01                       # Data bus utilization in percentage for reads
system.mem_ctrls.busUtilWrite                    0.00                       # Data bus utilization in percentage for writes
system.mem_ctrls.avgRdQLen                       1.58                       # Average read queue length when enqueuing
system.mem_ctrls.avgWrQLen                       0.00                       # Average write queue length when enqueuing
system.mem_ctrls.readRowHits                     2603                       # Number of row buffer hits during reads
system.mem_ctrls.writeRowHits                       0                       # Number of row buffer hits during writes
system.mem_ctrls.readRowHitRate                 82.35                       # Row buffer hit rate for reads
system.mem_ctrls.writeRowHitRate                  nan                       # Row buffer hit rate for writes
system.mem_ctrls.avgGap                   33488986.87                       # Average gap between requests
system.mem_ctrls.pageHitRate                    82.35                       # Row buffer hit rate, read and write combined
system.mem_ctrls_0.actEnergy                  1820700                       # Energy for activate commands per rank (pJ)
system.mem_ctrls_0.preEnergy                   952545                       # Energy for precharge commands per rank (pJ)
system.mem_ctrls_0.readEnergy                11838120                       # Energy for read commands per rank (pJ)
system.mem_ctrls_0.writeEnergy                      0                       # Energy for write commands per rank (pJ)
system.mem_ctrls_0.refreshEnergy         124157280.000000                       # Energy for refresh commands per rank (pJ)
system.mem_ctrls_0.actBackEnergy             36898380                       # Energy for active background per rank (pJ)
system.mem_ctrls_0.preBackEnergy              7947360                       # Energy for precharge background per rank (pJ)
system.mem_ctrls_0.actPowerDownEnergy       248108460                       # Energy for active power-down per rank (pJ)
system.mem_ctrls_0.prePowerDownEnergy       189808320                       # Energy for precharge power-down per rank (pJ)
system.mem_ctrls_0.selfRefreshEnergy      25165637700                       # Energy for self refresh per rank (pJ)
system.mem_ctrls_0.totalEnergy            25787196945                       # Total energy per rank (pJ)
system.mem_ctrls_0.averagePower            243.600012                       # Core power per rank (mW)
system.mem_ctrls_0.totalIdleTime         105757038290                       # Total Idle time Per DRAM Rank
system.mem_ctrls_0.memoryStateTime::IDLE     16357000                       # Time in different power states
system.mem_ctrls_0.memoryStateTime::REF      52880000                       # Time in different power states
system.mem_ctrls_0.memoryStateTime::SREF 104718702000                       # Time in different power states
system.mem_ctrls_0.memoryStateTime::PRE_PDN    494291493                       # Time in different power states
system.mem_ctrls_0.memoryStateTime::ACT      32443960                       # Time in different power states
system.mem_ctrls_0.memoryStateTime::ACT_PDN    544092547                       # Time in different power states
system.mem_ctrls_1.actEnergy                  2163420                       # Energy for activate commands per rank (pJ)
system.mem_ctrls_1.preEnergy                  1138500                       # Energy for precharge commands per rank (pJ)
system.mem_ctrls_1.readEnergy                10731420                       # Energy for read commands per rank (pJ)
system.mem_ctrls_1.writeEnergy                      0                       # Energy for write commands per rank (pJ)
system.mem_ctrls_1.refreshEnergy         211436160.000000                       # Energy for refresh commands per rank (pJ)
system.mem_ctrls_1.actBackEnergy             52410930                       # Energy for active background per rank (pJ)
system.mem_ctrls_1.preBackEnergy             13876800                       # Energy for precharge background per rank (pJ)
system.mem_ctrls_1.actPowerDownEnergy       429705330                       # Energy for active power-down per rank (pJ)
system.mem_ctrls_1.prePowerDownEnergy       314652960                       # Energy for precharge power-down per rank (pJ)
system.mem_ctrls_1.selfRefreshEnergy      25005565140                       # Energy for self refresh per rank (pJ)
system.mem_ctrls_1.totalEnergy            26041708740                       # Total energy per rank (pJ)
system.mem_ctrls_1.averagePower            246.004270                       # Core power per rank (mW)
system.mem_ctrls_1.totalIdleTime         105706980796                       # Total Idle time Per DRAM Rank
system.mem_ctrls_1.memoryStateTime::IDLE     28872500                       # Time in different power states
system.mem_ctrls_1.memoryStateTime::REF      90076000                       # Time in different power states
system.mem_ctrls_1.memoryStateTime::SREF 103945880500                       # Time in different power states
system.mem_ctrls_1.memoryStateTime::PRE_PDN    819401500                       # Time in different power states
system.mem_ctrls_1.memoryStateTime::ACT      32198454                       # Time in different power states
system.mem_ctrls_1.memoryStateTime::ACT_PDN    942338046                       # Time in different power states
system.pwrStateResidencyTicks::UNDEFINED 105858767000                       # Cumulative time (in ticks) in various power states
system.cpu.branchPred.lookups                53184666                       # Number of BP lookups
system.cpu.branchPred.condPredicted          46061483                       # Number of conditional branches predicted
system.cpu.branchPred.condIncorrect            859587                       # Number of conditional branches incorrect
system.cpu.branchPred.BTBLookups             42595088                       # Number of BTB lookups
system.cpu.branchPred.BTBHits                39209861                       # Number of BTB hits
system.cpu.branchPred.BTBCorrect                    0                       # Number of correct BTB predictions (this stat may not work properly.
system.cpu.branchPred.BTBHitPct             92.052541                       # BTB Hit Percentage
system.cpu.branchPred.usedRAS                 3148187                       # Number of times the RAS was used to get a target.
system.cpu.branchPred.RASInCorrect              85411                       # Number of incorrect RAS predictions.
system.cpu.branchPred.indirectLookups          218849                       # Number of indirect predictor lookups.
system.cpu.branchPred.indirectHits             218108                       # Number of indirect target hits.
system.cpu.branchPred.indirectMisses              741                       # Number of indirect misses.
system.cpu.branchPredindirectMispredicted          611                       # Number of mispredicted indirect branches.
system.cpu_voltage_domain.voltage                   1                       # Voltage in Volts
system.cpu_clk_domain.clock                       500                       # Clock period in ticks
system.cpu.dstage2_mmu.stage2_tlb.walker.pwrStateResidencyTicks::UNDEFINED 105858767000                       # Cumulative time (in ticks) in various power states
system.cpu.dstage2_mmu.stage2_tlb.walker.walks            0                       # Table walker walks requested
system.cpu.dstage2_mmu.stage2_tlb.walker.walkRequestOrigin_Requested::Data            0                       # Table walker requests started/completed, data/inst
system.cpu.dstage2_mmu.stage2_tlb.walker.walkRequestOrigin_Requested::Inst            0                       # Table walker requests started/completed, data/inst
system.cpu.dstage2_mmu.stage2_tlb.walker.walkRequestOrigin_Requested::total            0                       # Table walker requests started/completed, data/inst
system.cpu.dstage2_mmu.stage2_tlb.walker.walkRequestOrigin_Completed::Data            0                       # Table walker requests started/completed, data/inst
system.cpu.dstage2_mmu.stage2_tlb.walker.walkRequestOrigin_Completed::Inst            0                       # Table walker requests started/completed, data/inst
system.cpu.dstage2_mmu.stage2_tlb.walker.walkRequestOrigin_Completed::total            0                       # Table walker requests started/completed, data/inst
system.cpu.dstage2_mmu.stage2_tlb.walker.walkRequestOrigin::total            0                       # Table walker requests started/completed, data/inst
system.cpu.dstage2_mmu.stage2_tlb.inst_hits            0                       # ITB inst hits
system.cpu.dstage2_mmu.stage2_tlb.inst_misses            0                       # ITB inst misses
system.cpu.dstage2_mmu.stage2_tlb.read_hits            0                       # DTB read hits
system.cpu.dstage2_mmu.stage2_tlb.read_misses            0                       # DTB read misses
system.cpu.dstage2_mmu.stage2_tlb.write_hits            0                       # DTB write hits
system.cpu.dstage2_mmu.stage2_tlb.write_misses            0                       # DTB write misses
system.cpu.dstage2_mmu.stage2_tlb.flush_tlb            0                       # Number of times complete TLB was flushed
system.cpu.dstage2_mmu.stage2_tlb.flush_tlb_mva            0                       # Number of times TLB was flushed by MVA
system.cpu.dstage2_mmu.stage2_tlb.flush_tlb_mva_asid            0                       # Number of times TLB was flushed by MVA & ASID
system.cpu.dstage2_mmu.stage2_tlb.flush_tlb_asid            0                       # Number of times TLB was flushed by ASID
system.cpu.dstage2_mmu.stage2_tlb.flush_entries            0                       # Number of entries that have been flushed from TLB
system.cpu.dstage2_mmu.stage2_tlb.align_faults            0                       # Number of TLB faults due to alignment restrictions
system.cpu.dstage2_mmu.stage2_tlb.prefetch_faults            0                       # Number of TLB faults due to prefetch
system.cpu.dstage2_mmu.stage2_tlb.domain_faults            0                       # Number of TLB faults due to domain restrictions
system.cpu.dstage2_mmu.stage2_tlb.perms_faults            0                       # Number of TLB faults due to permissions restrictions
system.cpu.dstage2_mmu.stage2_tlb.read_accesses            0                       # DTB read accesses
system.cpu.dstage2_mmu.stage2_tlb.write_accesses            0                       # DTB write accesses
system.cpu.dstage2_mmu.stage2_tlb.inst_accesses            0                       # ITB inst accesses
system.cpu.dstage2_mmu.stage2_tlb.hits              0                       # DTB hits
system.cpu.dstage2_mmu.stage2_tlb.misses            0                       # DTB misses
system.cpu.dstage2_mmu.stage2_tlb.accesses            0                       # DTB accesses
system.cpu.dtb.walker.pwrStateResidencyTicks::UNDEFINED 105858767000                       # Cumulative time (in ticks) in various power states
system.cpu.dtb.walker.walks                         0                       # Table walker walks requested
system.cpu.dtb.walker.walkRequestOrigin_Requested::Data            0                       # Table walker requests started/completed, data/inst
system.cpu.dtb.walker.walkRequestOrigin_Requested::Inst            0                       # Table walker requests started/completed, data/inst
system.cpu.dtb.walker.walkRequestOrigin_Requested::total            0                       # Table walker requests started/completed, data/inst
system.cpu.dtb.walker.walkRequestOrigin_Completed::Data            0                       # Table walker requests started/completed, data/inst
system.cpu.dtb.walker.walkRequestOrigin_Completed::Inst            0                       # Table walker requests started/completed, data/inst
system.cpu.dtb.walker.walkRequestOrigin_Completed::total            0                       # Table walker requests started/completed, data/inst
system.cpu.dtb.walker.walkRequestOrigin::total            0                       # Table walker requests started/completed, data/inst
system.cpu.dtb.inst_hits                            0                       # ITB inst hits
system.cpu.dtb.inst_misses                          0                       # ITB inst misses
system.cpu.dtb.read_hits                            0                       # DTB read hits
system.cpu.dtb.read_misses                          0                       # DTB read misses
system.cpu.dtb.write_hits                           0                       # DTB write hits
system.cpu.dtb.write_misses                         0                       # DTB write misses
system.cpu.dtb.flush_tlb                            0                       # Number of times complete TLB was flushed
system.cpu.dtb.flush_tlb_mva                        0                       # Number of times TLB was flushed by MVA
system.cpu.dtb.flush_tlb_mva_asid                   0                       # Number of times TLB was flushed by MVA & ASID
system.cpu.dtb.flush_tlb_asid                       0                       # Number of times TLB was flushed by ASID
system.cpu.dtb.flush_entries                        0                       # Number of entries that have been flushed from TLB
system.cpu.dtb.align_faults                         0                       # Number of TLB faults due to alignment restrictions
system.cpu.dtb.prefetch_faults                      0                       # Number of TLB faults due to prefetch
system.cpu.dtb.domain_faults                        0                       # Number of TLB faults due to domain restrictions
system.cpu.dtb.perms_faults                         0                       # Number of TLB faults due to permissions restrictions
system.cpu.dtb.read_accesses                        0                       # DTB read accesses
system.cpu.dtb.write_accesses                       0                       # DTB write accesses
system.cpu.dtb.inst_accesses                        0                       # ITB inst accesses
system.cpu.dtb.hits                                 0                       # DTB hits
system.cpu.dtb.misses                               0                       # DTB misses
system.cpu.dtb.accesses                             0                       # DTB accesses
system.cpu.istage2_mmu.stage2_tlb.walker.pwrStateResidencyTicks::UNDEFINED 105858767000                       # Cumulative time (in ticks) in various power states
system.cpu.istage2_mmu.stage2_tlb.walker.walks            0                       # Table walker walks requested
system.cpu.istage2_mmu.stage2_tlb.walker.walkRequestOrigin_Requested::Data            0                       # Table walker requests started/completed, data/inst
system.cpu.istage2_mmu.stage2_tlb.walker.walkRequestOrigin_Requested::Inst            0                       # Table walker requests started/completed, data/inst
system.cpu.istage2_mmu.stage2_tlb.walker.walkRequestOrigin_Requested::total            0                       # Table walker requests started/completed, data/inst
system.cpu.istage2_mmu.stage2_tlb.walker.walkRequestOrigin_Completed::Data            0                       # Table walker requests started/completed, data/inst
system.cpu.istage2_mmu.stage2_tlb.walker.walkRequestOrigin_Completed::Inst            0                       # Table walker requests started/completed, data/inst
system.cpu.istage2_mmu.stage2_tlb.walker.walkRequestOrigin_Completed::total            0                       # Table walker requests started/completed, data/inst
system.cpu.istage2_mmu.stage2_tlb.walker.walkRequestOrigin::total            0                       # Table walker requests started/completed, data/inst
system.cpu.istage2_mmu.stage2_tlb.inst_hits            0                       # ITB inst hits
system.cpu.istage2_mmu.stage2_tlb.inst_misses            0                       # ITB inst misses
system.cpu.istage2_mmu.stage2_tlb.read_hits            0                       # DTB read hits
system.cpu.istage2_mmu.stage2_tlb.read_misses            0                       # DTB read misses
system.cpu.istage2_mmu.stage2_tlb.write_hits            0                       # DTB write hits
system.cpu.istage2_mmu.stage2_tlb.write_misses            0                       # DTB write misses
system.cpu.istage2_mmu.stage2_tlb.flush_tlb            0                       # Number of times complete TLB was flushed
system.cpu.istage2_mmu.stage2_tlb.flush_tlb_mva            0                       # Number of times TLB was flushed by MVA
system.cpu.istage2_mmu.stage2_tlb.flush_tlb_mva_asid            0                       # Number of times TLB was flushed by MVA & ASID
system.cpu.istage2_mmu.stage2_tlb.flush_tlb_asid            0                       # Number of times TLB was flushed by ASID
system.cpu.istage2_mmu.stage2_tlb.flush_entries            0                       # Number of entries that have been flushed from TLB
system.cpu.istage2_mmu.stage2_tlb.align_faults            0                       # Number of TLB faults due to alignment restrictions
system.cpu.istage2_mmu.stage2_tlb.prefetch_faults            0                       # Number of TLB faults due to prefetch
system.cpu.istage2_mmu.stage2_tlb.domain_faults            0                       # Number of TLB faults due to domain restrictions
system.cpu.istage2_mmu.stage2_tlb.perms_faults            0                       # Number of TLB faults due to permissions restrictions
system.cpu.istage2_mmu.stage2_tlb.read_accesses            0                       # DTB read accesses
system.cpu.istage2_mmu.stage2_tlb.write_accesses            0                       # DTB write accesses
system.cpu.istage2_mmu.stage2_tlb.inst_accesses            0                       # ITB inst accesses
system.cpu.istage2_mmu.stage2_tlb.hits              0                       # DTB hits
system.cpu.istage2_mmu.stage2_tlb.misses            0                       # DTB misses
system.cpu.istage2_mmu.stage2_tlb.accesses            0                       # DTB accesses
system.cpu.itb.walker.pwrStateResidencyTicks::UNDEFINED 105858767000                       # Cumulative time (in ticks) in various power states
system.cpu.itb.walker.walks                         0                       # Table walker walks requested
system.cpu.itb.walker.walkRequestOrigin_Requested::Data            0                       # Table walker requests started/completed, data/inst
system.cpu.itb.walker.walkRequestOrigin_Requested::Inst            0                       # Table walker requests started/completed, data/inst
system.cpu.itb.walker.walkRequestOrigin_Requested::total            0                       # Table walker requests started/completed, data/inst
system.cpu.itb.walker.walkRequestOrigin_Completed::Data            0                       # Table walker requests started/completed, data/inst
system.cpu.itb.walker.walkRequestOrigin_Completed::Inst            0                       # Table walker requests started/completed, data/inst
system.cpu.itb.walker.walkRequestOrigin_Completed::total            0                       # Table walker requests started/completed, data/inst
system.cpu.itb.walker.walkRequestOrigin::total            0                       # Table walker requests started/completed, data/inst
system.cpu.itb.inst_hits                            0                       # ITB inst hits
system.cpu.itb.inst_misses                          0                       # ITB inst misses
system.cpu.itb.read_hits                            0                       # DTB read hits
system.cpu.itb.read_misses                          0                       # DTB read misses
system.cpu.itb.write_hits                           0                       # DTB write hits
system.cpu.itb.write_misses                         0                       # DTB write misses
system.cpu.itb.flush_tlb                            0                       # Number of times complete TLB was flushed
system.cpu.itb.flush_tlb_mva                        0                       # Number of times TLB was flushed by MVA
system.cpu.itb.flush_tlb_mva_asid                   0                       # Number of times TLB was flushed by MVA & ASID
system.cpu.itb.flush_tlb_asid                       0                       # Number of times TLB was flushed by ASID
system.cpu.itb.flush_entries                        0                       # Number of entries that have been flushed from TLB
system.cpu.itb.align_faults                         0                       # Number of TLB faults due to alignment restrictions
system.cpu.itb.prefetch_faults                      0                       # Number of TLB faults due to prefetch
system.cpu.itb.domain_faults                        0                       # Number of TLB faults due to domain restrictions
system.cpu.itb.perms_faults                         0                       # Number of TLB faults due to permissions restrictions
system.cpu.itb.read_accesses                        0                       # DTB read accesses
system.cpu.itb.write_accesses                       0                       # DTB write accesses
system.cpu.itb.inst_accesses                        0                       # ITB inst accesses
system.cpu.itb.hits                                 0                       # DTB hits
system.cpu.itb.misses                               0                       # DTB misses
system.cpu.itb.accesses                             0                       # DTB accesses
system.cpu.workload.numSyscalls                    16                       # Number of system calls
system.cpu.pwrStateResidencyTicks::ON    105858767000                       # Cumulative time (in ticks) in various power states
system.cpu.numCycles                        211717535                       # number of cpu cycles simulated
system.cpu.numWorkItemsStarted                      0                       # number of work items this cpu started
system.cpu.numWorkItemsCompleted                    0                       # number of work items this cpu completed
system.cpu.fetch.icacheStallCycles             934987                       # Number of cycles fetch is stalled on an Icache miss
system.cpu.fetch.Insts                      432867418                       # Number of instructions fetch has processed
system.cpu.fetch.Branches                    53184666                       # Number of branches that fetch encountered
system.cpu.fetch.predictedBranches           42576156                       # Number of branches that fetch has predicted taken
system.cpu.fetch.Cycles                     209724867                       # Number of cycles fetch has run and was not squashing or blocked
system.cpu.fetch.SquashCycles                 1782804                       # Number of cycles fetch has spent squashing
system.cpu.fetch.MiscStallCycles                  745                       # Number of cycles fetch has spent waiting on interrupts, or bad addresses, or out of MSHRs
system.cpu.fetch.PendingTrapStallCycles           337                       # Number of stall cycles due to pending traps
system.cpu.fetch.IcacheWaitRetryStallCycles         1552                       # Number of stall cycles due to full MSHR
system.cpu.fetch.CacheLines                 128306316                       # Number of cache lines fetched
system.cpu.fetch.IcacheSquashes                  1924                       # Number of outstanding Icache misses that were squashed
system.cpu.fetch.rateDist::samples          211553890                       # Number of instructions fetched each cycle (Total)
system.cpu.fetch.rateDist::mean              2.139483                       # Number of instructions fetched each cycle (Total)
system.cpu.fetch.rateDist::stdev             1.013910                       # Number of instructions fetched each cycle (Total)
system.cpu.fetch.rateDist::underflows               0      0.00%      0.00% # Number of instructions fetched each cycle (Total)
system.cpu.fetch.rateDist::0                  6445500      3.05%      3.05% # Number of instructions fetched each cycle (Total)
system.cpu.fetch.rateDist::1                 76707471     36.26%     39.31% # Number of instructions fetched each cycle (Total)
system.cpu.fetch.rateDist::2                  9294272      4.39%     43.70% # Number of instructions fetched each cycle (Total)
system.cpu.fetch.rateDist::3                119106647     56.30%    100.00% # Number of instructions fetched each cycle (Total)
system.cpu.fetch.rateDist::overflows                0      0.00%    100.00% # Number of instructions fetched each cycle (Total)
system.cpu.fetch.rateDist::min_value                0                       # Number of instructions fetched each cycle (Total)
system.cpu.fetch.rateDist::max_value                3                       # Number of instructions fetched each cycle (Total)
system.cpu.fetch.rateDist::total            211553890                       # Number of instructions fetched each cycle (Total)
system.cpu.fetch.branchRate                  0.251206                       # Number of branch fetches per cycle
system.cpu.fetch.rate                        2.044552                       # Number of inst fetches per cycle
system.cpu.decode.IdleCycles                  7214186                       # Number of cycles decode is idle
system.cpu.decode.BlockedCycles              12377250                       # Number of cycles decode is blocked
system.cpu.decode.RunCycles                 183878218                       # Number of cycles decode is running
system.cpu.decode.UnblockCycles               7255841                       # Number of cycles decode is unblocking
system.cpu.decode.SquashCycles                 828395                       # Number of cycles decode is squashing
system.cpu.decode.BranchResolved             38835807                       # Number of times decode resolved a branch
system.cpu.decode.BranchMispred                 63198                       # Number of times decode detected a branch misprediction
system.cpu.decode.DecodedInsts              441655818                       # Number of instructions handled by decode
system.cpu.decode.SquashedInsts               3709641                       # Number of squashed instructions handled by decode
system.cpu.rename.SquashCycles                 828395                       # Number of cycles rename is squashing
system.cpu.rename.IdleCycles                 13521297                       # Number of cycles rename is idle
system.cpu.rename.BlockCycles                 2142579                       # Number of cycles rename is blocking
system.cpu.rename.serializeStallCycles        2321773                       # count of cycles rename stalled for serializing inst
system.cpu.rename.RunCycles                 184707658                       # Number of cycles rename is running
system.cpu.rename.UnblockCycles               8032188                       # Number of cycles rename is unblocking
system.cpu.rename.RenamedInsts              438213282                       # Number of instructions processed by rename
system.cpu.rename.SquashedInsts               1798215                       # Number of squashed instructions processed by rename
system.cpu.rename.ROBFullEvents               2237146                       # Number of times rename has blocked due to ROB full
system.cpu.rename.IQFullEvents                2537164                       # Number of times rename has blocked due to IQ full
system.cpu.rename.LQFullEvents                    658                       # Number of times rename has blocked due to LQ full
system.cpu.rename.SQFullEvents                  41313                       # Number of times rename has blocked due to SQ full
system.cpu.rename.RenamedOperands           607116731                       # Number of destination operands rename has renamed
system.cpu.rename.RenameLookups            2194454165                       # Number of register rename lookups that rename has made
system.cpu.rename.int_rename_lookups        734304271                       # Number of integer rename lookups
system.cpu.rename.fp_rename_lookups                16                       # Number of floating rename lookups
system.cpu.rename.CommittedMaps             576947938                       # Number of HB maps that are committed
system.cpu.rename.UndoneMaps                 30168792                       # Number of HB maps that are undone due to squashing
system.cpu.rename.serializingInsts             155342                       # count of serializing insts renamed
system.cpu.rename.tempSerializingInsts          31572                       # count of temporary serializing insts renamed
system.cpu.rename.skidInsts                  13859958                       # count of insts added to the skid buffer
system.cpu.memDep0.insertedLoads             38411401                       # Number of loads inserted to the mem dependence unit.
system.cpu.memDep0.insertedStores            38569390                       # Number of stores inserted to the mem dependence unit.
system.cpu.memDep0.conflictingLoads            536804                       # Number of conflicting loads.
system.cpu.memDep0.conflictingStores           499238                       # Number of conflicting stores.
system.cpu.iq.iqInstsAdded                  436689577                       # Number of instructions added to the IQ (excludes non-spec)
system.cpu.iq.iqNonSpecInstsAdded               32155                       # Number of non-speculative instructions added to the IQ
system.cpu.iq.iqInstsIssued                 425350676                       # Number of instructions issued
system.cpu.iq.iqSquashedInstsIssued           1432099                       # Number of squashed instructions issued
system.cpu.iq.iqSquashedInstsExamined        17662218                       # Number of squashed instructions iterated over during squash; mainly for profiling
system.cpu.iq.iqSquashedOperandsExamined     60606174                       # Number of squashed operands that are examined and possibly removed from graph
system.cpu.iq.iqSquashedNonSpecRemoved             47                       # Number of squashed non-spec instructions that were removed
system.cpu.iq.issued_per_cycle::samples     211553890                       # Number of insts issued each cycle
system.cpu.iq.issued_per_cycle::mean         2.010602                       # Number of insts issued each cycle
system.cpu.iq.issued_per_cycle::stdev        0.799998                       # Number of insts issued each cycle
system.cpu.iq.issued_per_cycle::underflows            0      0.00%      0.00% # Number of insts issued each cycle
system.cpu.iq.issued_per_cycle::0            12301822      5.81%      5.81% # Number of insts issued each cycle
system.cpu.iq.issued_per_cycle::1            28373531     13.41%     19.23% # Number of insts issued each cycle
system.cpu.iq.issued_per_cycle::2           116966889     55.29%     74.52% # Number of insts issued each cycle
system.cpu.iq.issued_per_cycle::3            52603230     24.87%     99.38% # Number of insts issued each cycle
system.cpu.iq.issued_per_cycle::4             1308413      0.62%    100.00% # Number of insts issued each cycle
system.cpu.iq.issued_per_cycle::5                   5      0.00%    100.00% # Number of insts issued each cycle
system.cpu.iq.issued_per_cycle::6                   0      0.00%    100.00% # Number of insts issued each cycle
system.cpu.iq.issued_per_cycle::7                   0      0.00%    100.00% # Number of insts issued each cycle
system.cpu.iq.issued_per_cycle::8                   0      0.00%    100.00% # Number of insts issued each cycle
system.cpu.iq.issued_per_cycle::overflows            0      0.00%    100.00% # Number of insts issued each cycle
system.cpu.iq.issued_per_cycle::min_value            0                       # Number of insts issued each cycle
system.cpu.iq.issued_per_cycle::max_value            5                       # Number of insts issued each cycle
system.cpu.iq.issued_per_cycle::total       211553890                       # Number of insts issued each cycle
system.cpu.iq.fu_full::No_OpClass                   0      0.00%      0.00% # attempts to use FU when none available
system.cpu.iq.fu_full::IntAlu                74326431     86.45%     86.45% # attempts to use FU when none available
system.cpu.iq.fu_full::IntMult                     21      0.00%     86.45% # attempts to use FU when none available
system.cpu.iq.fu_full::IntDiv                       0      0.00%     86.45% # attempts to use FU when none available
system.cpu.iq.fu_full::FloatAdd                     0      0.00%     86.45% # attempts to use FU when none available
system.cpu.iq.fu_full::FloatCmp                     0      0.00%     86.45% # attempts to use FU when none available
system.cpu.iq.fu_full::FloatCvt                     0      0.00%     86.45% # attempts to use FU when none available
system.cpu.iq.fu_full::FloatMult                    0      0.00%     86.45% # attempts to use FU when none available
system.cpu.iq.fu_full::FloatMultAcc                 0      0.00%     86.45% # attempts to use FU when none available
system.cpu.iq.fu_full::FloatDiv                     0      0.00%     86.45% # attempts to use FU when none available
system.cpu.iq.fu_full::FloatMisc                    0      0.00%     86.45% # attempts to use FU when none available
system.cpu.iq.fu_full::FloatSqrt                    0      0.00%     86.45% # attempts to use FU when none available
system.cpu.iq.fu_full::SimdAdd                      0      0.00%     86.45% # attempts to use FU when none available
system.cpu.iq.fu_full::SimdAddAcc                   0      0.00%     86.45% # attempts to use FU when none available
system.cpu.iq.fu_full::SimdAlu                      0      0.00%     86.45% # attempts to use FU when none available
system.cpu.iq.fu_full::SimdCmp                      0      0.00%     86.45% # attempts to use FU when none available
system.cpu.iq.fu_full::SimdCvt                      0      0.00%     86.45% # attempts to use FU when none available
system.cpu.iq.fu_full::SimdMisc                     0      0.00%     86.45% # attempts to use FU when none available
system.cpu.iq.fu_full::SimdMult                     0      0.00%     86.45% # attempts to use FU when none available
system.cpu.iq.fu_full::SimdMultAcc                  0      0.00%     86.45% # attempts to use FU when none available
system.cpu.iq.fu_full::SimdShift                    0      0.00%     86.45% # attempts to use FU when none available
system.cpu.iq.fu_full::SimdShiftAcc                 0      0.00%     86.45% # attempts to use FU when none available
system.cpu.iq.fu_full::SimdSqrt                     0      0.00%     86.45% # attempts to use FU when none available
system.cpu.iq.fu_full::SimdFloatAdd                 0      0.00%     86.45% # attempts to use FU when none available
system.cpu.iq.fu_full::SimdFloatAlu                 0      0.00%     86.45% # attempts to use FU when none available
system.cpu.iq.fu_full::SimdFloatCmp                 0      0.00%     86.45% # attempts to use FU when none available
system.cpu.iq.fu_full::SimdFloatCvt                 0      0.00%     86.45% # attempts to use FU when none available
system.cpu.iq.fu_full::SimdFloatDiv                 0      0.00%     86.45% # attempts to use FU when none available
system.cpu.iq.fu_full::SimdFloatMisc                0      0.00%     86.45% # attempts to use FU when none available
system.cpu.iq.fu_full::SimdFloatMult                0      0.00%     86.45% # attempts to use FU when none available
system.cpu.iq.fu_full::SimdFloatMultAcc             0      0.00%     86.45% # attempts to use FU when none available
system.cpu.iq.fu_full::SimdFloatSqrt                0      0.00%     86.45% # attempts to use FU when none available
system.cpu.iq.fu_full::MemRead                5752791      6.69%     93.14% # attempts to use FU when none available
system.cpu.iq.fu_full::MemWrite               5896304      6.86%    100.00% # attempts to use FU when none available
system.cpu.iq.fu_full::FloatMemRead                 0      0.00%    100.00% # attempts to use FU when none available
system.cpu.iq.fu_full::FloatMemWrite               16      0.00%    100.00% # attempts to use FU when none available
system.cpu.iq.fu_full::IprAccess                    0      0.00%    100.00% # attempts to use FU when none available
system.cpu.iq.fu_full::InstPrefetch                 0      0.00%    100.00% # attempts to use FU when none available
system.cpu.iq.FU_type_0::No_OpClass                14      0.00%      0.00% # Type of FU issued
system.cpu.iq.FU_type_0::IntAlu             346709728     81.51%     81.51% # Type of FU issued
system.cpu.iq.FU_type_0::IntMult              1603701      0.38%     81.89% # Type of FU issued
system.cpu.iq.FU_type_0::IntDiv                     0      0.00%     81.89% # Type of FU issued
system.cpu.iq.FU_type_0::FloatAdd                   0      0.00%     81.89% # Type of FU issued
system.cpu.iq.FU_type_0::FloatCmp                   0      0.00%     81.89% # Type of FU issued
system.cpu.iq.FU_type_0::FloatCvt                   0      0.00%     81.89% # Type of FU issued
system.cpu.iq.FU_type_0::FloatMult                  0      0.00%     81.89% # Type of FU issued
system.cpu.iq.FU_type_0::FloatMultAcc               0      0.00%     81.89% # Type of FU issued
system.cpu.iq.FU_type_0::FloatDiv                   0      0.00%     81.89% # Type of FU issued
system.cpu.iq.FU_type_0::FloatMisc                  0      0.00%     81.89% # Type of FU issued
system.cpu.iq.FU_type_0::FloatSqrt                  0      0.00%     81.89% # Type of FU issued
system.cpu.iq.FU_type_0::SimdAdd                    0      0.00%     81.89% # Type of FU issued
system.cpu.iq.FU_type_0::SimdAddAcc                 0      0.00%     81.89% # Type of FU issued
system.cpu.iq.FU_type_0::SimdAlu                    0      0.00%     81.89% # Type of FU issued
system.cpu.iq.FU_type_0::SimdCmp                    0      0.00%     81.89% # Type of FU issued
system.cpu.iq.FU_type_0::SimdCvt                    0      0.00%     81.89% # Type of FU issued
system.cpu.iq.FU_type_0::SimdMisc                   0      0.00%     81.89% # Type of FU issued
system.cpu.iq.FU_type_0::SimdMult                   0      0.00%     81.89% # Type of FU issued
system.cpu.iq.FU_type_0::SimdMultAcc                0      0.00%     81.89% # Type of FU issued
system.cpu.iq.FU_type_0::SimdShift                  0      0.00%     81.89% # Type of FU issued
system.cpu.iq.FU_type_0::SimdShiftAcc               0      0.00%     81.89% # Type of FU issued
system.cpu.iq.FU_type_0::SimdSqrt                   0      0.00%     81.89% # Type of FU issued
system.cpu.iq.FU_type_0::SimdFloatAdd               0      0.00%     81.89% # Type of FU issued
system.cpu.iq.FU_type_0::SimdFloatAlu               0      0.00%     81.89% # Type of FU issued
system.cpu.iq.FU_type_0::SimdFloatCmp               0      0.00%     81.89% # Type of FU issued
system.cpu.iq.FU_type_0::SimdFloatCvt               0      0.00%     81.89% # Type of FU issued
system.cpu.iq.FU_type_0::SimdFloatDiv               0      0.00%     81.89% # Type of FU issued
system.cpu.iq.FU_type_0::SimdFloatMisc         154681      0.04%     81.92% # Type of FU issued
system.cpu.iq.FU_type_0::SimdFloatMult              0      0.00%     81.92% # Type of FU issued
system.cpu.iq.FU_type_0::SimdFloatMultAcc            0      0.00%     81.92% # Type of FU issued
system.cpu.iq.FU_type_0::SimdFloatSqrt              0      0.00%     81.92% # Type of FU issued
system.cpu.iq.FU_type_0::MemRead             38873589      9.14%     91.06% # Type of FU issued
system.cpu.iq.FU_type_0::MemWrite            38008947      8.94%    100.00% # Type of FU issued
system.cpu.iq.FU_type_0::FloatMemRead               0      0.00%    100.00% # Type of FU issued
system.cpu.iq.FU_type_0::FloatMemWrite             16      0.00%    100.00% # Type of FU issued
system.cpu.iq.FU_type_0::IprAccess                  0      0.00%    100.00% # Type of FU issued
system.cpu.iq.FU_type_0::InstPrefetch               0      0.00%    100.00% # Type of FU issued
system.cpu.iq.FU_type_0::total              425350676                       # Type of FU issued
system.cpu.iq.rate                           2.009048                       # Inst issue rate
system.cpu.iq.fu_busy_cnt                    85975563                       # FU busy when requested
system.cpu.iq.fu_busy_rate                   0.202129                       # FU busy rate (busy events/executed inst)
system.cpu.iq.int_inst_queue_reads         1149662856                       # Number of integer instruction queue reads
system.cpu.iq.int_inst_queue_writes         454384853                       # Number of integer instruction queue writes
system.cpu.iq.int_inst_queue_wakeup_accesses    423506784                       # Number of integer instruction queue wakeup accesses
system.cpu.iq.fp_inst_queue_reads                  48                       # Number of floating instruction queue reads
system.cpu.iq.fp_inst_queue_writes                 16                       # Number of floating instruction queue writes
system.cpu.iq.fp_inst_queue_wakeup_accesses           16                       # Number of floating instruction queue wakeup accesses
system.cpu.iq.vec_inst_queue_reads                  0                       # Number of vector instruction queue reads
system.cpu.iq.vec_inst_queue_writes                 0                       # Number of vector instruction queue writes
system.cpu.iq.vec_inst_queue_wakeup_accesses            0                       # Number of vector instruction queue wakeup accesses
system.cpu.iq.int_alu_accesses              511326193                       # Number of integer alu accesses
system.cpu.iq.fp_alu_accesses                      32                       # Number of floating point alu accesses
system.cpu.iq.vec_alu_accesses                      0                       # Number of vector alu accesses
system.cpu.iew.lsq.thread0.forwLoads           391142                       # Number of loads that had data forwarded from stores
system.cpu.iew.lsq.thread0.invAddrLoads             0                       # Number of loads ignored due to an invalid address
system.cpu.iew.lsq.thread0.squashedLoads      1222692                       # Number of loads squashed
system.cpu.iew.lsq.thread0.ignoredResponses          215                       # Number of memory responses ignored because the instruction is squashed
system.cpu.iew.lsq.thread0.memOrderViolation          921                       # Number of memory ordering violations
system.cpu.iew.lsq.thread0.squashedStores       867249                       # Number of stores squashed
system.cpu.iew.lsq.thread0.invAddrSwpfs             0                       # Number of software prefetches ignored due to an invalid address
system.cpu.iew.lsq.thread0.blockedLoads             0                       # Number of blocked loads due to partial load-store forwarding
system.cpu.iew.lsq.thread0.rescheduledLoads       823803                       # Number of loads that were rescheduled
system.cpu.iew.lsq.thread0.cacheBlocked          2062                       # Number of times an access to memory failed due to the cache being blocked
system.cpu.iew.iewIdleCycles                        0                       # Number of cycles IEW is idle
system.cpu.iew.iewSquashCycles                 828395                       # Number of cycles IEW is squashing
system.cpu.iew.iewBlockCycles                 1637943                       # Number of cycles IEW is blocking
system.cpu.iew.iewUnblockCycles                   505                       # Number of cycles IEW is unblocking
system.cpu.iew.iewDispatchedInsts           436721740                       # Number of instructions dispatched to IQ
system.cpu.iew.iewDispSquashedInsts                 0                       # Number of squashed instructions skipped by dispatch
system.cpu.iew.iewDispLoadInsts              38411401                       # Number of dispatched load instructions
system.cpu.iew.iewDispStoreInsts             38569390                       # Number of dispatched store instructions
system.cpu.iew.iewDispNonSpecInsts              31571                       # Number of dispatched non-speculative instructions
system.cpu.iew.iewIQFullEvents                    120                       # Number of times the IQ has become full, causing a stall
system.cpu.iew.iewLSQFullEvents                   280                       # Number of times the LSQ has become full, causing a stall
system.cpu.iew.memOrderViolationEvents            921                       # Number of memory order violations
system.cpu.iew.predictedTakenIncorrect         441857                       # Number of branches that were predicted taken incorrectly
system.cpu.iew.predictedNotTakenIncorrect       423635                       # Number of branches that were predicted not taken incorrectly
system.cpu.iew.branchMispredicts               865492                       # Number of branch mispredicts detected at execute
system.cpu.iew.iewExecutedInsts             424611247                       # Number of executed instructions
system.cpu.iew.iewExecLoadInsts              38633210                       # Number of load instructions executed
system.cpu.iew.iewExecSquashedInsts            739429                       # Number of squashed instructions skipped in execute
system.cpu.iew.exec_swp                             0                       # number of swp insts executed
system.cpu.iew.exec_nop                             8                       # number of nop insts executed
system.cpu.iew.exec_refs                     76523672                       # number of memory reference insts executed
system.cpu.iew.exec_branches                 49535938                       # Number of branches executed
system.cpu.iew.exec_stores                   37890462                       # Number of stores executed
system.cpu.iew.exec_rate                     2.005555                       # Inst execution rate
system.cpu.iew.wb_sent                      423570494                       # cumulative count of insts sent to commit
system.cpu.iew.wb_count                     423506800                       # cumulative count of insts written-back
system.cpu.iew.wb_producers                 318755152                       # num instructions producing a value
system.cpu.iew.wb_consumers                 788850456                       # num instructions consuming a value
system.cpu.iew.wb_rate                       2.000339                       # insts written-back per cycle
system.cpu.iew.wb_fanout                     0.404076                       # average fanout of values written-back
system.cpu.commit.commitSquashedInsts        16345587                       # The number of squashed insts skipped by commit
system.cpu.commit.commitNonSpecStalls           32108                       # The number of times commit has been forced to stall to communicate backwards
system.cpu.commit.branchMispredicts            796586                       # The number of times a branch was mispredicted
system.cpu.commit.committed_per_cycle::samples    209093220                       # Number of insts commited each cycle
system.cpu.commit.committed_per_cycle::mean     2.004176                       # Number of insts commited each cycle
system.cpu.commit.committed_per_cycle::stdev     2.051924                       # Number of insts commited each cycle
system.cpu.commit.committed_per_cycle::underflows            0      0.00%      0.00% # Number of insts commited each cycle
system.cpu.commit.committed_per_cycle::0     43832298     20.96%     20.96% # Number of insts commited each cycle
system.cpu.commit.committed_per_cycle::1     59679179     28.54%     49.50% # Number of insts commited each cycle
system.cpu.commit.committed_per_cycle::2     61525521     29.42%     78.93% # Number of insts commited each cycle
system.cpu.commit.committed_per_cycle::3      8630772      4.13%     83.06% # Number of insts commited each cycle
system.cpu.commit.committed_per_cycle::4      5373850      2.57%     85.63% # Number of insts commited each cycle
system.cpu.commit.committed_per_cycle::5     16282514      7.79%     93.41% # Number of insts commited each cycle
system.cpu.commit.committed_per_cycle::6       932052      0.45%     93.86% # Number of insts commited each cycle
system.cpu.commit.committed_per_cycle::7       759578      0.36%     94.22% # Number of insts commited each cycle
system.cpu.commit.committed_per_cycle::8     12077456      5.78%    100.00% # Number of insts commited each cycle
system.cpu.commit.committed_per_cycle::overflows            0      0.00%    100.00% # Number of insts commited each cycle
system.cpu.commit.committed_per_cycle::min_value            0                       # Number of insts commited each cycle
system.cpu.commit.committed_per_cycle::max_value            8                       # Number of insts commited each cycle
system.cpu.commit.committed_per_cycle::total    209093220                       # Number of insts commited each cycle
system.cpu.commit.committedInsts            402752520                       # Number of instructions committed
system.cpu.commit.committedOps              419059513                       # Number of ops (including micro ops) committed
system.cpu.commit.swp_count                         0                       # Number of s/w prefetches committed
system.cpu.commit.refs                       74890850                       # Number of memory references committed
system.cpu.commit.loads                      37188709                       # Number of loads committed
system.cpu.commit.membars                         584                       # Number of memory barriers committed
system.cpu.commit.branches                   48961079                       # Number of branches committed
system.cpu.commit.vec_insts                         0                       # Number of committed Vector instructions.
system.cpu.commit.fp_insts                         16                       # Number of committed floating point instructions.
system.cpu.commit.int_insts                 376724794                       # Number of committed integer instructions.
system.cpu.commit.function_calls              3239999                       # Number of function calls committed.
system.cpu.commit.op_class_0::No_OpClass            0      0.00%      0.00% # Class of committed instruction
system.cpu.commit.op_class_0::IntAlu        342417093     81.71%     81.71% # Class of committed instruction
system.cpu.commit.op_class_0::IntMult         1596889      0.38%     82.09% # Class of committed instruction
system.cpu.commit.op_class_0::IntDiv                0      0.00%     82.09% # Class of committed instruction
system.cpu.commit.op_class_0::FloatAdd              0      0.00%     82.09% # Class of committed instruction
system.cpu.commit.op_class_0::FloatCmp              0      0.00%     82.09% # Class of committed instruction
system.cpu.commit.op_class_0::FloatCvt              0      0.00%     82.09% # Class of committed instruction
system.cpu.commit.op_class_0::FloatMult             0      0.00%     82.09% # Class of committed instruction
system.cpu.commit.op_class_0::FloatMultAcc            0      0.00%     82.09% # Class of committed instruction
system.cpu.commit.op_class_0::FloatDiv              0      0.00%     82.09% # Class of committed instruction
system.cpu.commit.op_class_0::FloatMisc             0      0.00%     82.09% # Class of committed instruction
system.cpu.commit.op_class_0::FloatSqrt             0      0.00%     82.09% # Class of committed instruction
system.cpu.commit.op_class_0::SimdAdd               0      0.00%     82.09% # Class of committed instruction
system.cpu.commit.op_class_0::SimdAddAcc            0      0.00%     82.09% # Class of committed instruction
system.cpu.commit.op_class_0::SimdAlu               0      0.00%     82.09% # Class of committed instruction
system.cpu.commit.op_class_0::SimdCmp               0      0.00%     82.09% # Class of committed instruction
system.cpu.commit.op_class_0::SimdCvt               0      0.00%     82.09% # Class of committed instruction
system.cpu.commit.op_class_0::SimdMisc              0      0.00%     82.09% # Class of committed instruction
system.cpu.commit.op_class_0::SimdMult              0      0.00%     82.09% # Class of committed instruction
system.cpu.commit.op_class_0::SimdMultAcc            0      0.00%     82.09% # Class of committed instruction
system.cpu.commit.op_class_0::SimdShift             0      0.00%     82.09% # Class of committed instruction
system.cpu.commit.op_class_0::SimdShiftAcc            0      0.00%     82.09% # Class of committed instruction
system.cpu.commit.op_class_0::SimdSqrt              0      0.00%     82.09% # Class of committed instruction
system.cpu.commit.op_class_0::SimdFloatAdd            0      0.00%     82.09% # Class of committed instruction
system.cpu.commit.op_class_0::SimdFloatAlu            0      0.00%     82.09% # Class of committed instruction
system.cpu.commit.op_class_0::SimdFloatCmp            0      0.00%     82.09% # Class of committed instruction
system.cpu.commit.op_class_0::SimdFloatCvt            0      0.00%     82.09% # Class of committed instruction
system.cpu.commit.op_class_0::SimdFloatDiv            0      0.00%     82.09% # Class of committed instruction
system.cpu.commit.op_class_0::SimdFloatMisc       154681      0.04%     82.13% # Class of committed instruction
[...]
system.l2.demand_miss_rate::cpu.data         0.078688                       # miss rate for demand accesses
system.l2.demand_miss_rate::total            0.136975                       # miss rate for demand accesses
system.l2.overall_miss_rate::cpu.inst        0.218357                       # miss rate for overall accesses
system.l2.overall_miss_rate::cpu.data        0.078688                       # miss rate for overall accesses
system.l2.overall_miss_rate::total           0.136975                       # miss rate for overall accesses
system.l2.ReadExReq_avg_miss_latency::cpu.data       113716                       # average ReadExReq miss latency
system.l2.ReadExReq_avg_miss_latency::total       113716                       # average ReadExReq miss latency
system.l2.ReadCleanReq_avg_miss_latency::cpu.inst 120592.259226                       # average ReadCleanReq miss latency
system.l2.ReadCleanReq_avg_miss_latency::total 120592.259226                       # average ReadCleanReq miss latency
system.l2.ReadSharedReq_avg_miss_latency::cpu.data 154069.124424                       # average ReadSharedReq miss latency
system.l2.ReadSharedReq_avg_miss_latency::total 154069.124424                       # average ReadSharedReq miss latency
system.l2.demand_avg_miss_latency::cpu.inst 120592.259226                       # average overall miss latency
system.l2.demand_avg_miss_latency::cpu.data 145045.617174                       # average overall miss latency
system.l2.demand_avg_miss_latency::total 128777.544910                       # average overall miss latency
system.l2.overall_avg_miss_latency::cpu.inst 120592.259226                       # average overall miss latency
system.l2.overall_avg_miss_latency::cpu.data 145045.617174                       # average overall miss latency
system.l2.overall_avg_miss_latency::total 128777.544910                       # average overall miss latency
system.l2.blocked_cycles::no_mshrs                  0                       # number of cycles access was blocked
system.l2.blocked_cycles::no_targets                0                       # number of cycles access was blocked
system.l2.blocked::no_mshrs                         0                       # number of cycles access was blocked
system.l2.blocked::no_targets                       0                       # number of cycles access was blocked
system.l2.avg_blocked_cycles::no_mshrs            nan                       # average number of cycles each access was blocked
system.l2.avg_blocked_cycles::no_targets          nan                       # average number of cycles each access was blocked
system.l2.ReadExReq_mshr_hits::cpu.data            30                       # number of ReadExReq MSHR hits
system.l2.ReadExReq_mshr_hits::total               30                       # number of ReadExReq MSHR hits
system.l2.ReadCleanReq_mshr_hits::cpu.inst            1                       # number of ReadCleanReq MSHR hits
system.l2.ReadCleanReq_mshr_hits::total             1                       # number of ReadCleanReq MSHR hits
system.l2.ReadSharedReq_mshr_hits::cpu.data            9                       # number of ReadSharedReq MSHR hits
system.l2.ReadSharedReq_mshr_hits::total            9                       # number of ReadSharedReq MSHR hits
system.l2.demand_mshr_hits::cpu.inst                1                       # number of demand (read+write) MSHR hits
system.l2.demand_mshr_hits::cpu.data               39                       # number of demand (read+write) MSHR hits
system.l2.demand_mshr_hits::total                  40                       # number of demand (read+write) MSHR hits
system.l2.overall_mshr_hits::cpu.inst               1                       # number of overall MSHR hits
system.l2.overall_mshr_hits::cpu.data              39                       # number of overall MSHR hits
system.l2.overall_mshr_hits::total                 40                       # number of overall MSHR hits
system.l2.HardPFReq_mshr_misses::l2.prefetcher         3577                       # number of HardPFReq MSHR misses
system.l2.HardPFReq_mshr_misses::total           3577                       # number of HardPFReq MSHR misses
system.l2.ReadExReq_mshr_misses::cpu.data           95                       # number of ReadExReq MSHR misses
system.l2.ReadExReq_mshr_misses::total             95                       # number of ReadExReq MSHR misses
system.l2.ReadCleanReq_mshr_misses::cpu.inst         1110                       # number of ReadCleanReq MSHR misses
system.l2.ReadCleanReq_mshr_misses::total         1110                       # number of ReadCleanReq MSHR misses
system.l2.ReadSharedReq_mshr_misses::cpu.data          425                       # number of ReadSharedReq MSHR misses
system.l2.ReadSharedReq_mshr_misses::total          425                       # number of ReadSharedReq MSHR misses
system.l2.demand_mshr_misses::cpu.inst           1110                       # number of demand (read+write) MSHR misses
system.l2.demand_mshr_misses::cpu.data            520                       # number of demand (read+write) MSHR misses
system.l2.demand_mshr_misses::total              1630                       # number of demand (read+write) MSHR misses
system.l2.overall_mshr_misses::cpu.inst          1110                       # number of overall MSHR misses
system.l2.overall_mshr_misses::cpu.data           520                       # number of overall MSHR misses
system.l2.overall_mshr_misses::l2.prefetcher         3577                       # number of overall MSHR misses
system.l2.overall_mshr_misses::total             5207                       # number of overall MSHR misses
system.l2.HardPFReq_mshr_miss_latency::l2.prefetcher     94635425                       # number of HardPFReq MSHR miss cycles
system.l2.HardPFReq_mshr_miss_latency::total     94635425                       # number of HardPFReq MSHR miss cycles
system.l2.ReadExReq_mshr_miss_latency::cpu.data     12209500                       # number of ReadExReq MSHR miss cycles
system.l2.ReadExReq_mshr_miss_latency::total     12209500                       # number of ReadExReq MSHR miss cycles
system.l2.ReadCleanReq_mshr_miss_latency::cpu.inst    127258500                       # number of ReadCleanReq MSHR miss cycles
system.l2.ReadCleanReq_mshr_miss_latency::total    127258500                       # number of ReadCleanReq MSHR miss cycles
system.l2.ReadSharedReq_mshr_miss_latency::cpu.data     63751500                       # number of ReadSharedReq MSHR miss cycles
system.l2.ReadSharedReq_mshr_miss_latency::total     63751500                       # number of ReadSharedReq MSHR miss cycles
system.l2.demand_mshr_miss_latency::cpu.inst    127258500                       # number of demand (read+write) MSHR miss cycles
system.l2.demand_mshr_miss_latency::cpu.data     75961000                       # number of demand (read+write) MSHR miss cycles
system.l2.demand_mshr_miss_latency::total    203219500                       # number of demand (read+write) MSHR miss cycles
system.l2.overall_mshr_miss_latency::cpu.inst    127258500                       # number of overall MSHR miss cycles
system.l2.overall_mshr_miss_latency::cpu.data     75961000                       # number of overall MSHR miss cycles
system.l2.overall_mshr_miss_latency::l2.prefetcher     94635425                       # number of overall MSHR miss cycles
system.l2.overall_mshr_miss_latency::total    297854925                       # number of overall MSHR miss cycles
system.l2.HardPFReq_mshr_miss_rate::l2.prefetcher          inf                       # mshr miss rate for HardPFReq accesses
system.l2.HardPFReq_mshr_miss_rate::total          inf                       # mshr miss rate for HardPFReq accesses
system.l2.ReadExReq_mshr_miss_rate::cpu.data     0.025300                       # mshr miss rate for ReadExReq accesses
system.l2.ReadExReq_mshr_miss_rate::total     0.025300                       # mshr miss rate for ReadExReq accesses
system.l2.ReadCleanReq_mshr_miss_rate::cpu.inst     0.218160                       # mshr miss rate for ReadCleanReq accesses
system.l2.ReadCleanReq_mshr_miss_rate::total     0.218160                       # mshr miss rate for ReadCleanReq accesses
system.l2.ReadSharedReq_mshr_miss_rate::cpu.data     0.126904                       # mshr miss rate for ReadSharedReq accesses
system.l2.ReadSharedReq_mshr_miss_rate::total     0.126904                       # mshr miss rate for ReadSharedReq accesses
system.l2.demand_mshr_miss_rate::cpu.inst     0.218160                       # mshr miss rate for demand accesses
system.l2.demand_mshr_miss_rate::cpu.data     0.073198                       # mshr miss rate for demand accesses
system.l2.demand_mshr_miss_rate::total       0.133694                       # mshr miss rate for demand accesses
system.l2.overall_mshr_miss_rate::cpu.inst     0.218160                       # mshr miss rate for overall accesses
system.l2.overall_mshr_miss_rate::cpu.data     0.073198                       # mshr miss rate for overall accesses
system.l2.overall_mshr_miss_rate::l2.prefetcher          inf                       # mshr miss rate for overall accesses
system.l2.overall_mshr_miss_rate::total      0.427083                       # mshr miss rate for overall accesses
system.l2.HardPFReq_avg_mshr_miss_latency::l2.prefetcher 26456.646631                       # average HardPFReq mshr miss latency
system.l2.HardPFReq_avg_mshr_miss_latency::total 26456.646631                       # average HardPFReq mshr miss latency
system.l2.ReadExReq_avg_mshr_miss_latency::cpu.data 128521.052632                       # average ReadExReq mshr miss latency
system.l2.ReadExReq_avg_mshr_miss_latency::total 128521.052632                       # average ReadExReq mshr miss latency
system.l2.ReadCleanReq_avg_mshr_miss_latency::cpu.inst 114647.297297                       # average ReadCleanReq mshr miss latency
system.l2.ReadCleanReq_avg_mshr_miss_latency::total 114647.297297                       # average ReadCleanReq mshr miss latency
system.l2.ReadSharedReq_avg_mshr_miss_latency::cpu.data 150003.529412                       # average ReadSharedReq mshr miss latency
system.l2.ReadSharedReq_avg_mshr_miss_latency::total 150003.529412                       # average ReadSharedReq mshr miss latency
system.l2.demand_avg_mshr_miss_latency::cpu.inst 114647.297297                       # average overall mshr miss latency
system.l2.demand_avg_mshr_miss_latency::cpu.data 146078.846154                       # average overall mshr miss latency
system.l2.demand_avg_mshr_miss_latency::total 124674.539877                       # average overall mshr miss latency
system.l2.overall_avg_mshr_miss_latency::cpu.inst 114647.297297                       # average overall mshr miss latency
system.l2.overall_avg_mshr_miss_latency::cpu.data 146078.846154                       # average overall mshr miss latency
system.l2.overall_avg_mshr_miss_latency::l2.prefetcher 26456.646631                       # average overall mshr miss latency
system.l2.overall_avg_mshr_miss_latency::total 57202.789514                       # average overall mshr miss latency
system.membus.snoop_filter.tot_requests          3161                       # Total number of requests made to the snoop filter.
system.membus.snoop_filter.hit_single_requests          362                       # Number of requests hitting in the snoop filter with a single holder of the requested data.
system.membus.snoop_filter.hit_multi_requests            0                       # Number of requests hitting in the snoop filter with multiple (>1) holders of the requested data.
system.membus.snoop_filter.tot_snoops               0                       # Total number of snoops made to the snoop filter.
system.membus.snoop_filter.hit_single_snoops            0                       # Number of snoops hitting in the snoop filter with a single holder of the requested data.
system.membus.snoop_filter.hit_multi_snoops            0                       # Number of snoops hitting in the snoop filter with multiple (>1) holders of the requested data.
system.membus.pwrStateResidencyTicks::UNDEFINED 105858767000                       # Cumulative time (in ticks) in various power states
system.membus.trans_dist::ReadResp               3066                       # Transaction distribution
system.membus.trans_dist::ReadExReq                95                       # Transaction distribution
system.membus.trans_dist::ReadExResp               95                       # Transaction distribution
system.membus.trans_dist::ReadCleanReq           3066                       # Transaction distribution
system.membus.pkt_count_system.l2.mem_side::system.mem_ctrls.port         6322                       # Packet count per connected master and slave (bytes)
system.membus.pkt_count::total                   6322                       # Packet count per connected master and slave (bytes)
system.membus.pkt_size_system.l2.mem_side::system.mem_ctrls.port       202304                       # Cumulative packet size per connected master and slave (bytes)
system.membus.pkt_size::total                  202304                       # Cumulative packet size per connected master and slave (bytes)
system.membus.snoops                                0                       # Total snoops (count)
system.membus.snoopTraffic                          0                       # Total snoop traffic (bytes)
system.membus.snoop_fanout::samples              3161                       # Request fanout histogram
system.membus.snoop_fanout::mean                    0                       # Request fanout histogram
system.membus.snoop_fanout::stdev                   0                       # Request fanout histogram
system.membus.snoop_fanout::underflows              0      0.00%      0.00% # Request fanout histogram
system.membus.snoop_fanout::0                    3161    100.00%    100.00% # Request fanout histogram
system.membus.snoop_fanout::1                       0      0.00%    100.00% # Request fanout histogram
system.membus.snoop_fanout::overflows               0      0.00%    100.00% # Request fanout histogram
system.membus.snoop_fanout::min_value               0                       # Request fanout histogram
system.membus.snoop_fanout::max_value               0                       # Request fanout histogram
system.membus.snoop_fanout::total                3161                       # Request fanout histogram
system.membus.reqLayer0.occupancy             4722703                       # Layer occupancy (ticks)
system.membus.reqLayer0.utilization               0.0                       # Layer utilization (%)
system.membus.respLayer1.occupancy           16593025                       # Layer occupancy (ticks)
system.membus.respLayer1.utilization              0.0                       # Layer utilization (%)
system.tol2bus.snoop_filter.tot_requests        23103                       # Total number of requests made to the snoop filter.
system.tol2bus.snoop_filter.hit_single_requests        10924                       # Number of requests hitting in the snoop filter with a single holder of the requested data.
system.tol2bus.snoop_filter.hit_multi_requests          359                       # Number of requests hitting in the snoop filter with multiple (>1) holders of the requested data.
system.tol2bus.snoop_filter.tot_snoops           2045                       # Total number of snoops made to the snoop filter.
system.tol2bus.snoop_filter.hit_single_snoops         2045                       # Number of snoops hitting in the snoop filter with a single holder of the requested data.
system.tol2bus.snoop_filter.hit_multi_snoops            0                       # Number of snoops hitting in the snoop filter with multiple (>1) holders of the requested data.
system.tol2bus.pwrStateResidencyTicks::UNDEFINED 105858767000                       # Cumulative time (in ticks) in various power states
system.tol2bus.trans_dist::ReadResp              8436                       # Transaction distribution
system.tol2bus.trans_dist::WritebackDirty         5068                       # Transaction distribution
system.tol2bus.trans_dist::WritebackClean         5843                       # Transaction distribution
system.tol2bus.trans_dist::HardPFReq             3816                       # Transaction distribution
system.tol2bus.trans_dist::ReadExReq             3755                       # Transaction distribution
system.tol2bus.trans_dist::ReadExResp            3755                       # Transaction distribution
system.tol2bus.trans_dist::ReadCleanReq          5088                       # Transaction distribution
system.tol2bus.trans_dist::ReadSharedReq         3349                       # Transaction distribution
system.tol2bus.pkt_count_system.cpu.icache.mem_side::system.l2.cpu_side        15006                       # Packet count per connected master and slave (bytes)
system.tol2bus.pkt_count_system.cpu.dcache.mem_side::system.l2.cpu_side        20288                       # Packet count per connected master and slave (bytes)
system.tol2bus.pkt_count::total                 35294                       # Packet count per connected master and slave (bytes)
system.tol2bus.pkt_size_system.cpu.icache.mem_side::system.l2.cpu_side       634752                       # Cumulative packet size per connected master and slave (bytes)
system.tol2bus.pkt_size_system.cpu.dcache.mem_side::system.l2.cpu_side       843776                       # Cumulative packet size per connected master and slave (bytes)
system.tol2bus.pkt_size::total                1478528                       # Cumulative packet size per connected master and slave (bytes)
system.tol2bus.snoops                            3816                       # Total snoops (count)
system.tol2bus.snoopTraffic                         0                       # Total snoop traffic (bytes)
system.tol2bus.snoop_fanout::samples            16008                       # Request fanout histogram
system.tol2bus.snoop_fanout::mean            0.150987                       # Request fanout histogram
system.tol2bus.snoop_fanout::stdev           0.358047                       # Request fanout histogram
system.tol2bus.snoop_fanout::underflows             0      0.00%      0.00% # Request fanout histogram
system.tol2bus.snoop_fanout::0                  13591     84.90%     84.90% # Request fanout histogram
system.tol2bus.snoop_fanout::1                   2417     15.10%    100.00% # Request fanout histogram
system.tol2bus.snoop_fanout::2                      0      0.00%    100.00% # Request fanout histogram
system.tol2bus.snoop_fanout::3                      0      0.00%    100.00% # Request fanout histogram
system.tol2bus.snoop_fanout::4                      0      0.00%    100.00% # Request fanout histogram
system.tol2bus.snoop_fanout::overflows              0      0.00%    100.00% # Request fanout histogram
system.tol2bus.snoop_fanout::min_value              0                       # Request fanout histogram
system.tol2bus.snoop_fanout::max_value              1                       # Request fanout histogram
system.tol2bus.snoop_fanout::total              16008                       # Request fanout histogram
system.tol2bus.reqLayer0.occupancy           22462500                       # Layer occupancy (ticks)
system.tol2bus.reqLayer0.utilization              0.0                       # Layer utilization (%)
system.tol2bus.respLayer0.occupancy           7631498                       # Layer occupancy (ticks)
system.tol2bus.respLayer0.utilization             0.0                       # Layer utilization (%)
system.tol2bus.respLayer1.occupancy          10660491                       # Layer occupancy (ticks)
system.tol2bus.respLayer1.utilization             0.0                       # Layer utilization (%)

---------- End Simulation Statistics   ----------
