
---------- Begin Simulation Statistics ----------
sim_seconds                                  1.864712                       # Number of seconds simulated
sim_ticks                                1864711933000                       # Number of ticks simulated
final_tick                               6664885648500                       # Number of ticks from beginning of simulation (restored from checkpoints and never reset)
sim_freq                                 1000000000000                       # Frequency of simulated ticks
host_inst_rate                                1224129                       # Simulator instruction rate (inst/s)
host_op_rate                                  2701430                       # Simulator op (including micro ops) rate (op/s)
host_tick_rate                             1514095871                       # Simulator tick rate (ticks/s)
host_mem_usage                                2325840                       # Number of bytes of host memory used
host_seconds                                  1231.57                       # Real time elapsed on the host
sim_insts                                  1507598139                       # Number of instructions simulated
sim_ops                                    3326994829                       # Number of ops (including micro ops) simulated
system.voltage_domain.voltage                       1                       # Voltage in Volts
system.clk_domain.clock                          1000                       # Clock period in ticks
system.mem_ctrls.pwrStateResidencyTicks::UNDEFINED 6664885648500                       # Cumulative time (in ticks) in various power states
system.mem_ctrls.bytes_read::l2.prefetcher        75328                       # Number of bytes read from this memory
system.mem_ctrls.bytes_read::switch_cpus0.inst           64                       # Number of bytes read from this memory
system.mem_ctrls.bytes_read::switch_cpus0.data           64                       # Number of bytes read from this memory
system.mem_ctrls.bytes_read::switch_cpus_10.inst         3008                       # Number of bytes read from this memory
system.mem_ctrls.bytes_read::switch_cpus_10.data        30976                       # Number of bytes read from this memory
system.mem_ctrls.bytes_read::switch_cpus_11.inst        15360                       # Number of bytes read from this memory
system.mem_ctrls.bytes_read::switch_cpus_11.data        30592                       # Number of bytes read from this memory
system.mem_ctrls.bytes_read::switch_cpus_12.inst         2240                       # Number of bytes read from this memory
system.mem_ctrls.bytes_read::switch_cpus_12.data        21696                       # Number of bytes read from this memory
system.mem_ctrls.bytes_read::switch_cpus_13.dtb.walker           64                       # Number of bytes read from this memory
system.mem_ctrls.bytes_read::switch_cpus_13.inst         1216                       # Number of bytes read from this memory
system.mem_ctrls.bytes_read::switch_cpus_13.data        16256                       # Number of bytes read from this memory
system.mem_ctrls.bytes_read::switch_cpus_14.inst          512                       # Number of bytes read from this memory
system.mem_ctrls.bytes_read::switch_cpus_14.data        13120                       # Number of bytes read from this memory
system.mem_ctrls.bytes_read::switch_cpus_15.inst          576                       # Number of bytes read from this memory
system.mem_ctrls.bytes_read::switch_cpus_15.data        16064                       # Number of bytes read from this memory
system.mem_ctrls.bytes_read::switch_cpus_16.inst          512                       # Number of bytes read from this memory
system.mem_ctrls.bytes_read::switch_cpus_16.data        13632                       # Number of bytes read from this memory
system.mem_ctrls.bytes_read::switch_cpus_17.inst         2048                       # Number of bytes read from this memory
system.mem_ctrls.bytes_read::switch_cpus_17.data        30336                       # Number of bytes read from this memory
system.mem_ctrls.bytes_read::total             273664                       # Number of bytes read from this memory
system.mem_ctrls.bytes_inst_read::switch_cpus0.inst           64                       # Number of instructions bytes read from this memory
system.mem_ctrls.bytes_inst_read::switch_cpus_10.inst         3008                       # Number of instructions bytes read from this memory
system.mem_ctrls.bytes_inst_read::switch_cpus_11.inst        15360                       # Number of instructions bytes read from this memory
system.mem_ctrls.bytes_inst_read::switch_cpus_12.inst         2240                       # Number of instructions bytes read from this memory
system.mem_ctrls.bytes_inst_read::switch_cpus_13.inst         1216                       # Number of instructions bytes read from this memory
system.mem_ctrls.bytes_inst_read::switch_cpus_14.inst          512                       # Number of instructions bytes read from this memory
system.mem_ctrls.bytes_inst_read::switch_cpus_15.inst          576                       # Number of instructions bytes read from this memory
system.mem_ctrls.bytes_inst_read::switch_cpus_16.inst          512                       # Number of instructions bytes read from this memory
system.mem_ctrls.bytes_inst_read::switch_cpus_17.inst         2048                       # Number of instructions bytes read from this memory
system.mem_ctrls.bytes_inst_read::total         25536                       # Number of instructions bytes read from this memory
system.mem_ctrls.bytes_written::writebacks      1200192                       # Number of bytes written to this memory
system.mem_ctrls.bytes_written::total         1200192                       # Number of bytes written to this memory
system.mem_ctrls.num_reads::l2.prefetcher         1177                       # Number of read requests responded to by this memory
system.mem_ctrls.num_reads::switch_cpus0.inst            1                       # Number of read requests responded to by this memory
system.mem_ctrls.num_reads::switch_cpus0.data            1                       # Number of read requests responded to by this memory
system.mem_ctrls.num_reads::switch_cpus_10.inst           47                       # Number of read requests responded to by this memory
system.mem_ctrls.num_reads::switch_cpus_10.data          484                       # Number of read requests responded to by this memory
system.mem_ctrls.num_reads::switch_cpus_11.inst          240                       # Number of read requests responded to by this memory
system.mem_ctrls.num_reads::switch_cpus_11.data          478                       # Number of read requests responded to by this memory
system.mem_ctrls.num_reads::switch_cpus_12.inst           35                       # Number of read requests responded to by this memory
system.mem_ctrls.num_reads::switch_cpus_12.data          339                       # Number of read requests responded to by this memory
system.mem_ctrls.num_reads::switch_cpus_13.dtb.walker            1                       # Number of read requests responded to by this memory
system.mem_ctrls.num_reads::switch_cpus_13.inst           19                       # Number of read requests responded to by this memory
system.mem_ctrls.num_reads::switch_cpus_13.data          254                       # Number of read requests responded to by this memory
system.mem_ctrls.num_reads::switch_cpus_14.inst            8                       # Number of read requests responded to by this memory
system.mem_ctrls.num_reads::switch_cpus_14.data          205                       # Number of read requests responded to by this memory
system.mem_ctrls.num_reads::switch_cpus_15.inst            9                       # Number of read requests responded to by this memory
system.mem_ctrls.num_reads::switch_cpus_15.data          251                       # Number of read requests responded to by this memory
system.mem_ctrls.num_reads::switch_cpus_16.inst            8                       # Number of read requests responded to by this memory
system.mem_ctrls.num_reads::switch_cpus_16.data          213                       # Number of read requests responded to by this memory
system.mem_ctrls.num_reads::switch_cpus_17.inst           32                       # Number of read requests responded to by this memory
system.mem_ctrls.num_reads::switch_cpus_17.data          474                       # Number of read requests responded to by this memory
system.mem_ctrls.num_reads::total                4276                       # Number of read requests responded to by this memory
system.mem_ctrls.num_writes::writebacks         18753                       # Number of write requests responded to by this memory
system.mem_ctrls.num_writes::total              18753                       # Number of write requests responded to by this memory
system.mem_ctrls.bw_read::l2.prefetcher         40397                       # Total read bandwidth from this memory (bytes/s)
system.mem_ctrls.bw_read::switch_cpus0.inst           34                       # Total read bandwidth from this memory (bytes/s)
system.mem_ctrls.bw_read::switch_cpus0.data           34                       # Total read bandwidth from this memory (bytes/s)
system.mem_ctrls.bw_read::switch_cpus_10.inst         1613                       # Total read bandwidth from this memory (bytes/s)
system.mem_ctrls.bw_read::switch_cpus_10.data        16612                       # Total read bandwidth from this memory (bytes/s)
system.mem_ctrls.bw_read::switch_cpus_11.inst         8237                       # Total read bandwidth from this memory (bytes/s)
system.mem_ctrls.bw_read::switch_cpus_11.data        16406                       # Total read bandwidth from this memory (bytes/s)
system.mem_ctrls.bw_read::switch_cpus_12.inst         1201                       # Total read bandwidth from this memory (bytes/s)
system.mem_ctrls.bw_read::switch_cpus_12.data        11635                       # Total read bandwidth from this memory (bytes/s)
system.mem_ctrls.bw_read::switch_cpus_13.dtb.walker           34                       # Total read bandwidth from this memory (bytes/s)
system.mem_ctrls.bw_read::switch_cpus_13.inst          652                       # Total read bandwidth from this memory (bytes/s)
system.mem_ctrls.bw_read::switch_cpus_13.data         8718                       # Total read bandwidth from this memory (bytes/s)
system.mem_ctrls.bw_read::switch_cpus_14.inst          275                       # Total read bandwidth from this memory (bytes/s)
system.mem_ctrls.bw_read::switch_cpus_14.data         7036                       # Total read bandwidth from this memory (bytes/s)
system.mem_ctrls.bw_read::switch_cpus_15.inst          309                       # Total read bandwidth from this memory (bytes/s)
system.mem_ctrls.bw_read::switch_cpus_15.data         8615                       # Total read bandwidth from this memory (bytes/s)
system.mem_ctrls.bw_read::switch_cpus_16.inst          275                       # Total read bandwidth from this memory (bytes/s)
system.mem_ctrls.bw_read::switch_cpus_16.data         7311                       # Total read bandwidth from this memory (bytes/s)
system.mem_ctrls.bw_read::switch_cpus_17.inst         1098                       # Total read bandwidth from this memory (bytes/s)
system.mem_ctrls.bw_read::switch_cpus_17.data        16268                       # Total read bandwidth from this memory (bytes/s)
system.mem_ctrls.bw_read::total                146759                       # Total read bandwidth from this memory (bytes/s)
system.mem_ctrls.bw_inst_read::switch_cpus0.inst           34                       # Instruction read bandwidth from this memory (bytes/s)
system.mem_ctrls.bw_inst_read::switch_cpus_10.inst         1613                       # Instruction read bandwidth from this memory (bytes/s)
system.mem_ctrls.bw_inst_read::switch_cpus_11.inst         8237                       # Instruction read bandwidth from this memory (bytes/s)
system.mem_ctrls.bw_inst_read::switch_cpus_12.inst         1201                       # Instruction read bandwidth from this memory (bytes/s)
system.mem_ctrls.bw_inst_read::switch_cpus_13.inst          652                       # Instruction read bandwidth from this memory (bytes/s)
system.mem_ctrls.bw_inst_read::switch_cpus_14.inst          275                       # Instruction read bandwidth from this memory (bytes/s)
system.mem_ctrls.bw_inst_read::switch_cpus_15.inst          309                       # Instruction read bandwidth from this memory (bytes/s)
system.mem_ctrls.bw_inst_read::switch_cpus_16.inst          275                       # Instruction read bandwidth from this memory (bytes/s)
system.mem_ctrls.bw_inst_read::switch_cpus_17.inst         1098                       # Instruction read bandwidth from this memory (bytes/s)
system.mem_ctrls.bw_inst_read::total            13694                       # Instruction read bandwidth from this memory (bytes/s)
system.mem_ctrls.bw_write::writebacks          643634                       # Write bandwidth from this memory (bytes/s)
system.mem_ctrls.bw_write::total               643634                       # Write bandwidth from this memory (bytes/s)
system.mem_ctrls.bw_total::writebacks          643634                       # Total bandwidth to/from this memory (bytes/s)
system.mem_ctrls.bw_total::l2.prefetcher        40397                       # Total bandwidth to/from this memory (bytes/s)
system.mem_ctrls.bw_total::switch_cpus0.inst           34                       # Total bandwidth to/from this memory (bytes/s)
system.mem_ctrls.bw_total::switch_cpus0.data           34                       # Total bandwidth to/from this memory (bytes/s)
system.mem_ctrls.bw_total::switch_cpus_10.inst         1613                       # Total bandwidth to/from this memory (bytes/s)
system.mem_ctrls.bw_total::switch_cpus_10.data        16612                       # Total bandwidth to/from this memory (bytes/s)
system.mem_ctrls.bw_total::switch_cpus_11.inst         8237                       # Total bandwidth to/from this memory (bytes/s)
system.mem_ctrls.bw_total::switch_cpus_11.data        16406                       # Total bandwidth to/from this memory (bytes/s)
system.mem_ctrls.bw_total::switch_cpus_12.inst         1201                       # Total bandwidth to/from this memory (bytes/s)
system.mem_ctrls.bw_total::switch_cpus_12.data        11635                       # Total bandwidth to/from this memory (bytes/s)
system.mem_ctrls.bw_total::switch_cpus_13.dtb.walker           34                       # Total bandwidth to/from this memory (bytes/s)
system.mem_ctrls.bw_total::switch_cpus_13.inst          652                       # Total bandwidth to/from this memory (bytes/s)
system.mem_ctrls.bw_total::switch_cpus_13.data         8718                       # Total bandwidth to/from this memory (bytes/s)
system.mem_ctrls.bw_total::switch_cpus_14.inst          275                       # Total bandwidth to/from this memory (bytes/s)
system.mem_ctrls.bw_total::switch_cpus_14.data         7036                       # Total bandwidth to/from this memory (bytes/s)
system.mem_ctrls.bw_total::switch_cpus_15.inst          309                       # Total bandwidth to/from this memory (bytes/s)
system.mem_ctrls.bw_total::switch_cpus_15.data         8615                       # Total bandwidth to/from this memory (bytes/s)
system.mem_ctrls.bw_total::switch_cpus_16.inst          275                       # Total bandwidth to/from this memory (bytes/s)
system.mem_ctrls.bw_total::switch_cpus_16.data         7311                       # Total bandwidth to/from this memory (bytes/s)
system.mem_ctrls.bw_total::switch_cpus_17.inst         1098                       # Total bandwidth to/from this memory (bytes/s)
system.mem_ctrls.bw_total::switch_cpus_17.data        16268                       # Total bandwidth to/from this memory (bytes/s)
system.mem_ctrls.bw_total::total               790393                       # Total bandwidth to/from this memory (bytes/s)
system.mem_ctrls.readReqs                        4274                       # Number of read requests accepted
system.mem_ctrls.writeReqs                      18751                       # Number of write requests accepted
system.mem_ctrls.readBursts                      4274                       # Number of DRAM read bursts, including those serviced by the write queue
system.mem_ctrls.writeBursts                    18751                       # Number of DRAM write bursts, including those merged in the write queue
system.mem_ctrls.bytesReadDRAM                 271488                       # Total number of bytes read from DRAM
system.mem_ctrls.bytesReadWrQ                    2048                       # Total number of bytes read from write queue
system.mem_ctrls.bytesWritten                 1198784                       # Total number of bytes written to DRAM
system.mem_ctrls.bytesReadSys                  273536                       # Total read bytes from the system interface side
system.mem_ctrls.bytesWrittenSys              1200064                       # Total written bytes from the system interface side
system.mem_ctrls.servicedByWrQ                     32                       # Number of DRAM read bursts serviced by the write queue
system.mem_ctrls.mergedWrBursts                     0                       # Number of DRAM write bursts merged with an existing one
system.mem_ctrls.neitherReadNorWriteReqs            0                       # Number of requests that are neither read nor write
system.mem_ctrls.perBankRdBursts::0               365                       # Per bank write bursts
system.mem_ctrls.perBankRdBursts::1               218                       # Per bank write bursts
system.mem_ctrls.perBankRdBursts::2               146                       # Per bank write bursts
system.mem_ctrls.perBankRdBursts::3               181                       # Per bank write bursts
system.mem_ctrls.perBankRdBursts::4               425                       # Per bank write bursts
system.mem_ctrls.perBankRdBursts::5               245                       # Per bank write bursts
system.mem_ctrls.perBankRdBursts::6               330                       # Per bank write bursts
system.mem_ctrls.perBankRdBursts::7               335                       # Per bank write bursts
system.mem_ctrls.perBankRdBursts::8               225                       # Per bank write bursts
system.mem_ctrls.perBankRdBursts::9               195                       # Per bank write bursts
system.mem_ctrls.perBankRdBursts::10              104                       # Per bank write bursts
system.mem_ctrls.perBankRdBursts::11              147                       # Per bank write bursts
system.mem_ctrls.perBankRdBursts::12              587                       # Per bank write bursts
system.mem_ctrls.perBankRdBursts::13              321                       # Per bank write bursts
system.mem_ctrls.perBankRdBursts::14              305                       # Per bank write bursts
system.mem_ctrls.perBankRdBursts::15              113                       # Per bank write bursts
system.mem_ctrls.perBankWrBursts::0              1032                       # Per bank write bursts
system.mem_ctrls.perBankWrBursts::1               867                       # Per bank write bursts
system.mem_ctrls.perBankWrBursts::2               721                       # Per bank write bursts
system.mem_ctrls.perBankWrBursts::3              1004                       # Per bank write bursts
system.mem_ctrls.perBankWrBursts::4              1179                       # Per bank write bursts
system.mem_ctrls.perBankWrBursts::5              1068                       # Per bank write bursts
system.mem_ctrls.perBankWrBursts::6              1086                       # Per bank write bursts
system.mem_ctrls.perBankWrBursts::7              1159                       # Per bank write bursts
system.mem_ctrls.perBankWrBursts::8              1341                       # Per bank write bursts
system.mem_ctrls.perBankWrBursts::9              1440                       # Per bank write bursts
system.mem_ctrls.perBankWrBursts::10             1431                       # Per bank write bursts
system.mem_ctrls.perBankWrBursts::11             1355                       # Per bank write bursts
system.mem_ctrls.perBankWrBursts::12             1393                       # Per bank write bursts
system.mem_ctrls.perBankWrBursts::13             1264                       # Per bank write bursts
system.mem_ctrls.perBankWrBursts::14             1428                       # Per bank write bursts
system.mem_ctrls.perBankWrBursts::15              963                       # Per bank write bursts
system.mem_ctrls.numRdRetry                         0                       # Number of times read queue was full causing retry
system.mem_ctrls.numWrRetry                        17                       # Number of times write queue was full causing retry
system.mem_ctrls.totGap                  1497116860000                       # Total gap between requests
system.mem_ctrls.readPktSize::0                     0                       # Read request sizes (log2)
system.mem_ctrls.readPktSize::1                     0                       # Read request sizes (log2)
system.mem_ctrls.readPktSize::2                     0                       # Read request sizes (log2)
system.mem_ctrls.readPktSize::3                     0                       # Read request sizes (log2)
system.mem_ctrls.readPktSize::4                     0                       # Read request sizes (log2)
system.mem_ctrls.readPktSize::5                     0                       # Read request sizes (log2)
system.mem_ctrls.readPktSize::6                  4274                       # Read request sizes (log2)
system.mem_ctrls.writePktSize::0                    0                       # Write request sizes (log2)
system.mem_ctrls.writePktSize::1                    0                       # Write request sizes (log2)
system.mem_ctrls.writePktSize::2                    0                       # Write request sizes (log2)
system.mem_ctrls.writePktSize::3                    0                       # Write request sizes (log2)
system.mem_ctrls.writePktSize::4                    0                       # Write request sizes (log2)
system.mem_ctrls.writePktSize::5                    0                       # Write request sizes (log2)
system.mem_ctrls.writePktSize::6                18751                       # Write request sizes (log2)
system.mem_ctrls.rdQLenPdf::0                    3821                       # What read queue length does an incoming req see
system.mem_ctrls.rdQLenPdf::1                     173                       # What read queue length does an incoming req see
system.mem_ctrls.rdQLenPdf::2                      96                       # What read queue length does an incoming req see
system.mem_ctrls.rdQLenPdf::3                      87                       # What read queue length does an incoming req see
system.mem_ctrls.rdQLenPdf::4                      62                       # What read queue length does an incoming req see
system.mem_ctrls.rdQLenPdf::5                       3                       # What read queue length does an incoming req see
system.mem_ctrls.rdQLenPdf::6                       0                       # What read queue length does an incoming req see
system.mem_ctrls.rdQLenPdf::7                       0                       # What read queue length does an incoming req see
system.mem_ctrls.rdQLenPdf::8                       0                       # What read queue length does an incoming req see
system.mem_ctrls.rdQLenPdf::9                       0                       # What read queue length does an incoming req see
system.mem_ctrls.rdQLenPdf::10                      0                       # What read queue length does an incoming req see
system.mem_ctrls.rdQLenPdf::11                      0                       # What read queue length does an incoming req see
system.mem_ctrls.rdQLenPdf::12                      0                       # What read queue length does an incoming req see
system.mem_ctrls.rdQLenPdf::13                      0                       # What read queue length does an incoming req see
system.mem_ctrls.rdQLenPdf::14                      0                       # What read queue length does an incoming req see
system.mem_ctrls.rdQLenPdf::15                      0                       # What read queue length does an incoming req see
system.mem_ctrls.rdQLenPdf::16                      0                       # What read queue length does an incoming req see
system.mem_ctrls.rdQLenPdf::17                      0                       # What read queue length does an incoming req see
system.mem_ctrls.rdQLenPdf::18                      0                       # What read queue length does an incoming req see
system.mem_ctrls.rdQLenPdf::19                      0                       # What read queue length does an incoming req see
system.mem_ctrls.rdQLenPdf::20                      0                       # What read queue length does an incoming req see
system.mem_ctrls.rdQLenPdf::21                      0                       # What read queue length does an incoming req see
system.mem_ctrls.rdQLenPdf::22                      0                       # What read queue length does an incoming req see
system.mem_ctrls.rdQLenPdf::23                      0                       # What read queue length does an incoming req see
system.mem_ctrls.rdQLenPdf::24                      0                       # What read queue length does an incoming req see
system.mem_ctrls.rdQLenPdf::25                      0                       # What read queue length does an incoming req see
system.mem_ctrls.rdQLenPdf::26                      0                       # What read queue length does an incoming req see
system.mem_ctrls.rdQLenPdf::27                      0                       # What read queue length does an incoming req see
system.mem_ctrls.rdQLenPdf::28                      0                       # What read queue length does an incoming req see
system.mem_ctrls.rdQLenPdf::29                      0                       # What read queue length does an incoming req see
system.mem_ctrls.rdQLenPdf::30                      0                       # What read queue length does an incoming req see
system.mem_ctrls.rdQLenPdf::31                      0                       # What read queue length does an incoming req see
system.mem_ctrls.wrQLenPdf::0                       1                       # What write queue length does an incoming req see
system.mem_ctrls.wrQLenPdf::1                       1                       # What write queue length does an incoming req see
system.mem_ctrls.wrQLenPdf::2                       1                       # What write queue length does an incoming req see
system.mem_ctrls.wrQLenPdf::3                       1                       # What write queue length does an incoming req see
system.mem_ctrls.wrQLenPdf::4                       1                       # What write queue length does an incoming req see
system.mem_ctrls.wrQLenPdf::5                       1                       # What write queue length does an incoming req see
system.mem_ctrls.wrQLenPdf::6                       1                       # What write queue length does an incoming req see
system.mem_ctrls.wrQLenPdf::7                       1                       # What write queue length does an incoming req see
system.mem_ctrls.wrQLenPdf::8                       1                       # What write queue length does an incoming req see
system.mem_ctrls.wrQLenPdf::9                       1                       # What write queue length does an incoming req see
system.mem_ctrls.wrQLenPdf::10                      1                       # What write queue length does an incoming req see
system.mem_ctrls.wrQLenPdf::11                      1                       # What write queue length does an incoming req see
system.mem_ctrls.wrQLenPdf::12                      1                       # What write queue length does an incoming req see
system.mem_ctrls.wrQLenPdf::13                      1                       # What write queue length does an incoming req see
system.mem_ctrls.wrQLenPdf::14                      1                       # What write queue length does an incoming req see
system.mem_ctrls.wrQLenPdf::15                    398                       # What write queue length does an incoming req see
system.mem_ctrls.wrQLenPdf::16                    835                       # What write queue length does an incoming req see
system.mem_ctrls.wrQLenPdf::17                    644                       # What write queue length does an incoming req see
system.mem_ctrls.wrQLenPdf::18                    655                       # What write queue length does an incoming req see
system.mem_ctrls.wrQLenPdf::19                    748                       # What write queue length does an incoming req see
system.mem_ctrls.wrQLenPdf::20                    649                       # What write queue length does an incoming req see
system.mem_ctrls.wrQLenPdf::21                    786                       # What write queue length does an incoming req see
system.mem_ctrls.wrQLenPdf::22                    970                       # What write queue length does an incoming req see
system.mem_ctrls.wrQLenPdf::23                   1395                       # What write queue length does an incoming req see
system.mem_ctrls.wrQLenPdf::24                   1197                       # What write queue length does an incoming req see
system.mem_ctrls.wrQLenPdf::25                   1772                       # What write queue length does an incoming req see
system.mem_ctrls.wrQLenPdf::26                   2039                       # What write queue length does an incoming req see
system.mem_ctrls.wrQLenPdf::27                   1217                       # What write queue length does an incoming req see
system.mem_ctrls.wrQLenPdf::28                    873                       # What write queue length does an incoming req see
system.mem_ctrls.wrQLenPdf::29                    897                       # What write queue length does an incoming req see
system.mem_ctrls.wrQLenPdf::30                    730                       # What write queue length does an incoming req see
system.mem_ctrls.wrQLenPdf::31                    593                       # What write queue length does an incoming req see
system.mem_ctrls.wrQLenPdf::32                    570                       # What write queue length does an incoming req see
system.mem_ctrls.wrQLenPdf::33                     89                       # What write queue length does an incoming req see
system.mem_ctrls.wrQLenPdf::34                     83                       # What write queue length does an incoming req see
system.mem_ctrls.wrQLenPdf::35                     68                       # What write queue length does an incoming req see
system.mem_ctrls.wrQLenPdf::36                     49                       # What write queue length does an incoming req see
system.mem_ctrls.wrQLenPdf::37                     72                       # What write queue length does an incoming req see
system.mem_ctrls.wrQLenPdf::38                     58                       # What write queue length does an incoming req see
system.mem_ctrls.wrQLenPdf::39                     42                       # What write queue length does an incoming req see
system.mem_ctrls.wrQLenPdf::40                     50                       # What write queue length does an incoming req see
system.mem_ctrls.wrQLenPdf::41                     45                       # What write queue length does an incoming req see
system.mem_ctrls.wrQLenPdf::42                     44                       # What write queue length does an incoming req see
system.mem_ctrls.wrQLenPdf::43                     66                       # What write queue length does an incoming req see
system.mem_ctrls.wrQLenPdf::44                     64                       # What write queue length does an incoming req see
system.mem_ctrls.wrQLenPdf::45                     52                       # What write queue length does an incoming req see
system.mem_ctrls.wrQLenPdf::46                     72                       # What write queue length does an incoming req see
system.mem_ctrls.wrQLenPdf::47                     58                       # What write queue length does an incoming req see
system.mem_ctrls.wrQLenPdf::48                     67                       # What write queue length does an incoming req see
system.mem_ctrls.wrQLenPdf::49                     70                       # What write queue length does an incoming req see
system.mem_ctrls.wrQLenPdf::50                     69                       # What write queue length does an incoming req see
system.mem_ctrls.wrQLenPdf::51                     55                       # What write queue length does an incoming req see
system.mem_ctrls.wrQLenPdf::52                     66                       # What write queue length does an incoming req see
system.mem_ctrls.wrQLenPdf::53                     64                       # What write queue length does an incoming req see
system.mem_ctrls.wrQLenPdf::54                     52                       # What write queue length does an incoming req see
system.mem_ctrls.wrQLenPdf::55                     58                       # What write queue length does an incoming req see
system.mem_ctrls.wrQLenPdf::56                     61                       # What write queue length does an incoming req see
system.mem_ctrls.wrQLenPdf::57                     53                       # What write queue length does an incoming req see
system.mem_ctrls.wrQLenPdf::58                     35                       # What write queue length does an incoming req see
system.mem_ctrls.wrQLenPdf::59                     63                       # What write queue length does an incoming req see
system.mem_ctrls.wrQLenPdf::60                     36                       # What write queue length does an incoming req see
system.mem_ctrls.wrQLenPdf::61                     33                       # What write queue length does an incoming req see
system.mem_ctrls.wrQLenPdf::62                     20                       # What write queue length does an incoming req see
system.mem_ctrls.wrQLenPdf::63                     54                       # What write queue length does an incoming req see
system.mem_ctrls.bytesPerActivate::samples         4457                       # Bytes accessed per row activation
system.mem_ctrls.bytesPerActivate::mean    329.879291                       # Bytes accessed per row activation
system.mem_ctrls.bytesPerActivate::gmean   156.524660                       # Bytes accessed per row activation
system.mem_ctrls.bytesPerActivate::stdev   403.091875                       # Bytes accessed per row activation
system.mem_ctrls.bytesPerActivate::0-127         2509     56.29%     56.29% # Bytes accessed per row activation
system.mem_ctrls.bytesPerActivate::128-255          573     12.86%     69.15% # Bytes accessed per row activation
system.mem_ctrls.bytesPerActivate::256-383          145      3.25%     72.40% # Bytes accessed per row activation
system.mem_ctrls.bytesPerActivate::384-511           67      1.50%     73.91% # Bytes accessed per row activation
system.mem_ctrls.bytesPerActivate::512-639           34      0.76%     74.67% # Bytes accessed per row activation
system.mem_ctrls.bytesPerActivate::640-767           25      0.56%     75.23% # Bytes accessed per row activation
system.mem_ctrls.bytesPerActivate::768-895           24      0.54%     75.77% # Bytes accessed per row activation
system.mem_ctrls.bytesPerActivate::896-1023           40      0.90%     76.67% # Bytes accessed per row activation
system.mem_ctrls.bytesPerActivate::1024-1151         1040     23.33%    100.00% # Bytes accessed per row activation
system.mem_ctrls.bytesPerActivate::total         4457                       # Bytes accessed per row activation
system.mem_ctrls.rdPerTurnAround::samples          467                       # Reads before turning the bus around for writes
system.mem_ctrls.rdPerTurnAround::mean       9.036403                       # Reads before turning the bus around for writes
system.mem_ctrls.rdPerTurnAround::stdev     18.894238                       # Reads before turning the bus around for writes
system.mem_ctrls.rdPerTurnAround::0-7             339     72.59%     72.59% # Reads before turning the bus around for writes
system.mem_ctrls.rdPerTurnAround::8-15             11      2.36%     74.95% # Reads before turning the bus around for writes
system.mem_ctrls.rdPerTurnAround::16-23            34      7.28%     82.23% # Reads before turning the bus around for writes
system.mem_ctrls.rdPerTurnAround::24-31            29      6.21%     88.44% # Reads before turning the bus around for writes
system.mem_ctrls.rdPerTurnAround::32-39            20      4.28%     92.72% # Reads before turning the bus around for writes
system.mem_ctrls.rdPerTurnAround::40-47            19      4.07%     96.79% # Reads before turning the bus around for writes
system.mem_ctrls.rdPerTurnAround::48-55            10      2.14%     98.93% # Reads before turning the bus around for writes
system.mem_ctrls.rdPerTurnAround::56-63             1      0.21%     99.14% # Reads before turning the bus around for writes
system.mem_ctrls.rdPerTurnAround::64-71             1      0.21%     99.36% # Reads before turning the bus around for writes
system.mem_ctrls.rdPerTurnAround::72-79             1      0.21%     99.57% # Reads before turning the bus around for writes
system.mem_ctrls.rdPerTurnAround::120-127            1      0.21%     99.79% # Reads before turning the bus around for writes
system.mem_ctrls.rdPerTurnAround::232-239            1      0.21%    100.00% # Reads before turning the bus around for writes
system.mem_ctrls.rdPerTurnAround::total           467                       # Reads before turning the bus around for writes
system.mem_ctrls.wrPerTurnAround::samples          467                       # Writes before turning the bus around for reads
system.mem_ctrls.wrPerTurnAround::mean      40.109208                       # Writes before turning the bus around for reads
system.mem_ctrls.wrPerTurnAround::gmean     33.804941                       # Writes before turning the bus around for reads
system.mem_ctrls.wrPerTurnAround::stdev     26.710313                       # Writes before turning the bus around for reads
system.mem_ctrls.wrPerTurnAround::16-19           127     27.19%     27.19% # Writes before turning the bus around for reads
system.mem_ctrls.wrPerTurnAround::20-23            17      3.64%     30.84% # Writes before turning the bus around for reads
system.mem_ctrls.wrPerTurnAround::24-27             9      1.93%     32.76% # Writes before turning the bus around for reads
system.mem_ctrls.wrPerTurnAround::28-31            18      3.85%     36.62% # Writes before turning the bus around for reads
system.mem_ctrls.wrPerTurnAround::32-35           125     26.77%     63.38% # Writes before turning the bus around for reads
system.mem_ctrls.wrPerTurnAround::36-39            13      2.78%     66.17% # Writes before turning the bus around for reads
system.mem_ctrls.wrPerTurnAround::40-43            13      2.78%     68.95% # Writes before turning the bus around for reads
system.mem_ctrls.wrPerTurnAround::44-47             6      1.28%     70.24% # Writes before turning the bus around for reads
system.mem_ctrls.wrPerTurnAround::48-51             6      1.28%     71.52% # Writes before turning the bus around for reads
system.mem_ctrls.wrPerTurnAround::52-55             4      0.86%     72.38% # Writes before turning the bus around for reads
system.mem_ctrls.wrPerTurnAround::56-59             3      0.64%     73.02% # Writes before turning the bus around for reads
system.mem_ctrls.wrPerTurnAround::60-63             6      1.28%     74.30% # Writes before turning the bus around for reads
system.mem_ctrls.wrPerTurnAround::64-67            93     19.91%     94.22% # Writes before turning the bus around for reads
system.mem_ctrls.wrPerTurnAround::68-71             1      0.21%     94.43% # Writes before turning the bus around for reads
system.mem_ctrls.wrPerTurnAround::72-75             2      0.43%     94.86% # Writes before turning the bus around for reads
system.mem_ctrls.wrPerTurnAround::76-79             4      0.86%     95.72% # Writes before turning the bus around for reads
system.mem_ctrls.wrPerTurnAround::84-87             2      0.43%     96.15% # Writes before turning the bus around for reads
system.mem_ctrls.wrPerTurnAround::92-95             1      0.21%     96.36% # Writes before turning the bus around for reads
system.mem_ctrls.wrPerTurnAround::96-99             1      0.21%     96.57% # Writes before turning the bus around for reads
system.mem_ctrls.wrPerTurnAround::104-107            1      0.21%     96.79% # Writes before turning the bus around for reads
system.mem_ctrls.wrPerTurnAround::108-111            2      0.43%     97.22% # Writes before turning the bus around for reads
system.mem_ctrls.wrPerTurnAround::112-115            3      0.64%     97.86% # Writes before turning the bus around for reads
system.mem_ctrls.wrPerTurnAround::124-127            2      0.43%     98.29% # Writes before turning the bus around for reads
system.mem_ctrls.wrPerTurnAround::128-131            3      0.64%     98.93% # Writes before turning the bus around for reads
system.mem_ctrls.wrPerTurnAround::160-163            1      0.21%     99.14% # Writes before turning the bus around for reads
system.mem_ctrls.wrPerTurnAround::176-179            1      0.21%     99.36% # Writes before turning the bus around for reads
system.mem_ctrls.wrPerTurnAround::184-187            1      0.21%     99.57% # Writes before turning the bus around for reads
system.mem_ctrls.wrPerTurnAround::188-191            1      0.21%     99.79% # Writes before turning the bus around for reads
system.mem_ctrls.wrPerTurnAround::192-195            1      0.21%    100.00% # Writes before turning the bus around for reads
system.mem_ctrls.wrPerTurnAround::total           467                       # Writes before turning the bus around for reads
system.mem_ctrls.totQLat                    422609149                       # Total ticks spent queuing
system.mem_ctrls.totMemAccLat               502146649                       # Total ticks spent from burst creation until serviced by the DRAM
system.mem_ctrls.totBusLat                   21210000                       # Total ticks spent in databus transfers
system.mem_ctrls.avgQLat                     99624.98                       # Average queueing delay per DRAM burst
system.mem_ctrls.avgBusLat                    5000.00                       # Average bus latency per DRAM burst
system.mem_ctrls.avgMemAccLat               118374.98                       # Average memory access latency per DRAM burst
system.mem_ctrls.avgRdBW                         0.15                       # Average DRAM read bandwidth in MiByte/s
system.mem_ctrls.avgWrBW                         0.64                       # Average achieved write bandwidth in MiByte/s
system.mem_ctrls.avgRdBWSys                      0.15                       # Average system read bandwidth in MiByte/s
system.mem_ctrls.avgWrBWSys                      0.64                       # Average system write bandwidth in MiByte/s
system.mem_ctrls.peakBW                      12800.00                       # Theoretical peak bandwidth in MiByte/s
system.mem_ctrls.busUtil                         0.01                       # Data bus utilization in percentage
system.mem_ctrls.busUtilRead                     0.00                       # Data bus utilization in percentage for reads
system.mem_ctrls.busUtilWrite                    0.01                       # Data bus utilization in percentage for writes
system.mem_ctrls.avgRdQLen                       1.44                       # Average read queue length when enqueuing
system.mem_ctrls.avgWrQLen                      23.26                       # Average write queue length when enqueuing
system.mem_ctrls.readRowHits                     2249                       # Number of row buffer hits during reads
system.mem_ctrls.writeRowHits                   16267                       # Number of row buffer hits during writes
system.mem_ctrls.readRowHitRate                 53.02                       # Row buffer hit rate for reads
system.mem_ctrls.writeRowHitRate                86.75                       # Row buffer hit rate for writes
system.mem_ctrls.avgGap                   65021362.00                       # Average gap between requests
system.mem_ctrls.pageHitRate                    80.53                       # Row buffer hit rate, read and write combined
system.mem_ctrls_0.actEnergy                 15108240                       # Energy for activate commands per rank (pJ)
system.mem_ctrls_0.preEnergy                  8030220                       # Energy for precharge commands per rank (pJ)
system.mem_ctrls_0.readEnergy                16029300                       # Energy for read commands per rank (pJ)
system.mem_ctrls_0.writeEnergy               42365520                       # Energy for write commands per rank (pJ)
system.mem_ctrls_0.refreshEnergy         601732560.000000                       # Energy for refresh commands per rank (pJ)
system.mem_ctrls_0.actBackEnergy            293770590                       # Energy for active background per rank (pJ)
system.mem_ctrls_0.preBackEnergy             40115520                       # Energy for precharge background per rank (pJ)
system.mem_ctrls_0.actPowerDownEnergy      1088143680                       # Energy for active power-down per rank (pJ)
system.mem_ctrls_0.prePowerDownEnergy       896222400                       # Energy for precharge power-down per rank (pJ)
system.mem_ctrls_0.selfRefreshEnergy     446374747080                       # Energy for self refresh per rank (pJ)
system.mem_ctrls_0.totalEnergy           449376369570                       # Total energy per rank (pJ)
system.mem_ctrls_0.averagePower            240.989700                       # Core power per rank (mW)
system.mem_ctrls_0.totalIdleTime         1496376540762                       # Total Idle time Per DRAM Rank
system.mem_ctrls_0.memoryStateTime::IDLE     89468250                       # Time in different power states
system.mem_ctrls_0.memoryStateTime::REF     256322000                       # Time in different power states
system.mem_ctrls_0.memoryStateTime::SREF 1859211131750                       # Time in different power states
system.mem_ctrls_0.memoryStateTime::PRE_PDN   2333898982                       # Time in different power states
system.mem_ctrls_0.memoryStateTime::ACT     411017488                       # Time in different power states
system.mem_ctrls_0.memoryStateTime::ACT_PDN   2386224030                       # Time in different power states
system.mem_ctrls_1.actEnergy                 16714740                       # Energy for activate commands per rank (pJ)
system.mem_ctrls_1.preEnergy                  8884095                       # Energy for precharge commands per rank (pJ)
system.mem_ctrls_1.readEnergy                14258580                       # Energy for read commands per rank (pJ)
system.mem_ctrls_1.writeEnergy               55410300                       # Energy for write commands per rank (pJ)
system.mem_ctrls_1.refreshEnergy         574073760.000000                       # Energy for refresh commands per rank (pJ)
system.mem_ctrls_1.actBackEnergy            313510830                       # Energy for active background per rank (pJ)
system.mem_ctrls_1.preBackEnergy             36605280                       # Energy for precharge background per rank (pJ)
system.mem_ctrls_1.actPowerDownEnergy      1062574620                       # Energy for active power-down per rank (pJ)
system.mem_ctrls_1.prePowerDownEnergy       853675680                       # Energy for precharge power-down per rank (pJ)
system.mem_ctrls_1.selfRefreshEnergy     446392363020                       # Energy for self refresh per rank (pJ)
system.mem_ctrls_1.totalEnergy           449328179355                       # Total energy per rank (pJ)
system.mem_ctrls_1.averagePower            240.963857                       # Core power per rank (mW)
system.mem_ctrls_1.totalIdleTime         1495922506500                       # Total Idle time Per DRAM Rank
system.mem_ctrls_1.memoryStateTime::IDLE     73589500                       # Time in different power states
system.mem_ctrls_1.memoryStateTime::REF     244448000                       # Time in different power states
system.mem_ctrls_1.memoryStateTime::SREF 1859351255750                       # Time in different power states
system.mem_ctrls_1.memoryStateTime::PRE_PDN   2223099000                       # Time in different power states
system.mem_ctrls_1.memoryStateTime::ACT     465473000                       # Time in different power states
system.mem_ctrls_1.memoryStateTime::ACT_PDN   2330197250                       # Time in different power states
system.pwrStateResidencyTicks::UNDEFINED 6664885648500                       # Cumulative time (in ticks) in various power states
system.apicbridge.pwrStateResidencyTicks::UNDEFINED 6664885648500                       # Cumulative time (in ticks) in various power states
system.bridge.pwrStateResidencyTicks::UNDEFINED 6664885648500                       # Cumulative time (in ticks) in various power states
system.cpu_voltage_domain.voltage                   1                       # Voltage in Volts
system.cpu_clk_domain.clock                       500                       # Clock period in ticks
system.cpu0.dtb.walker.pwrStateResidencyTicks::UNDEFINED 6664885648500                       # Cumulative time (in ticks) in various power states
system.cpu0.dtb.rdAccesses                          0                       # TLB accesses on read requests
system.cpu0.dtb.wrAccesses                          0                       # TLB accesses on write requests
system.cpu0.dtb.rdMisses                            0                       # TLB misses on read requests
system.cpu0.dtb.wrMisses                            0                       # TLB misses on write requests
system.cpu0.apic_clk_domain.clock                8000                       # Clock period in ticks
system.cpu0.interrupts.pwrStateResidencyTicks::UNDEFINED 6664885648500                       # Cumulative time (in ticks) in various power states
system.cpu0.itb.walker.pwrStateResidencyTicks::UNDEFINED 6664885648500                       # Cumulative time (in ticks) in various power states
system.cpu0.itb.rdAccesses                          0                       # TLB accesses on read requests
system.cpu0.itb.wrAccesses                          0                       # TLB accesses on write requests
system.cpu0.itb.rdMisses                            0                       # TLB misses on read requests
system.cpu0.itb.wrMisses                            0                       # TLB misses on write requests
system.cpu0.pwrStateResidencyTicks::OFF  6664885646500                       # Cumulative time (in ticks) in various power states
system.cpu0.numCycles                               0                       # number of cpu cycles simulated
system.cpu0.numWorkItemsStarted                     0                       # number of work items this cpu started
system.cpu0.numWorkItemsCompleted                   0                       # number of work items this cpu completed
system.cpu0.kern.inst.arm                           0                       # number of arm instructions executed
system.cpu0.kern.inst.quiesce                       0                       # number of quiesce instructions executed
system.cpu0.committedInsts                          0                       # Number of instructions committed
system.cpu0.committedOps                            0                       # Number of ops (including micro ops) committed
system.cpu0.num_int_alu_accesses                    0                       # Number of integer alu accesses
system.cpu0.num_fp_alu_accesses                     0                       # Number of float alu accesses
system.cpu0.num_vec_alu_accesses                    0                       # Number of vector alu accesses
system.cpu0.num_func_calls                          0                       # number of times a function call or return occured
system.cpu0.num_conditional_control_insts            0                       # number of instructions that are conditional controls
system.cpu0.num_int_insts                           0                       # number of integer instructions
system.cpu0.num_fp_insts                            0                       # number of float instructions
system.cpu0.num_vec_insts                           0                       # number of vector instructions
system.cpu0.num_int_register_reads                  0                       # number of times the integer registers were read
system.cpu0.num_int_register_writes                 0                       # number of times the integer registers were written
system.cpu0.num_fp_register_reads                   0                       # number of times the floating registers were read
system.cpu0.num_fp_register_writes                  0                       # number of times the floating registers were written
system.cpu0.num_vec_register_reads                  0                       # number of times the vector registers were read
system.cpu0.num_vec_register_writes                 0                       # number of times the vector registers were written
system.cpu0.num_mem_refs                            0                       # number of memory refs
system.cpu0.num_load_insts                          0                       # Number of load instructions
system.cpu0.num_store_insts                         0                       # Number of store instructions
system.cpu0.num_idle_cycles                         0                       # Number of idle cycles
system.cpu0.num_busy_cycles                         0                       # Number of busy cycles
system.cpu0.not_idle_fraction                       1                       # Percentage of non-idle cycles
system.cpu0.idle_fraction                           0                       # Percentage of idle cycles
system.cpu0.op_class::No_OpClass                    0                       # Class of executed instruction
system.cpu0.op_class::IntAlu                        0                       # Class of executed instruction
system.cpu0.op_class::IntMult                       0                       # Class of executed instruction
system.cpu0.op_class::IntDiv                        0                       # Class of executed instruction
system.cpu0.op_class::FloatAdd                      0                       # Class of executed instruction
system.cpu0.op_class::FloatCmp                      0                       # Class of executed instruction
system.cpu0.op_class::FloatCvt                      0                       # Class of executed instruction
system.cpu0.op_class::FloatMult                     0                       # Class of executed instruction
system.cpu0.op_class::FloatMultAcc                  0                       # Class of executed instruction
system.cpu0.op_class::FloatDiv                      0                       # Class of executed instruction
system.cpu0.op_class::FloatMisc                     0                       # Class of executed instruction
system.cpu0.op_class::FloatSqrt                     0                       # Class of executed instruction
system.cpu0.op_class::SimdAdd                       0                       # Class of executed instruction
system.cpu0.op_class::SimdAddAcc                    0                       # Class of executed instruction
system.cpu0.op_class::SimdAlu                       0                       # Class of executed instruction
system.cpu0.op_class::SimdCmp                       0                       # Class of executed instruction
system.cpu0.op_class::SimdCvt                       0                       # Class of executed instruction
system.cpu0.op_class::SimdMisc                      0                       # Class of executed instruction
system.cpu0.op_class::SimdMult                      0                       # Class of executed instruction
system.cpu0.op_class::SimdMultAcc                   0                       # Class of executed instruction
system.cpu0.op_class::SimdShift                     0                       # Class of executed instruction
system.cpu0.op_class::SimdShiftAcc                  0                       # Class of executed instruction
system.cpu0.op_class::SimdSqrt                      0                       # Class of executed instruction
system.cpu0.op_class::SimdFloatAdd                  0                       # Class of executed instruction
system.cpu0.op_class::SimdFloatAlu                  0                       # Class of executed instruction
system.cpu0.op_class::SimdFloatCmp                  0                       # Class of executed instruction
system.cpu0.op_class::SimdFloatCvt                  0                       # Class of executed instruction
system.cpu0.op_class::SimdFloatDiv                  0                       # Class of executed instruction
system.cpu0.op_class::SimdFloatMisc                 0                       # Class of executed instruction
system.cpu0.op_class::SimdFloatMult                 0                       # Class of executed instruction
system.cpu0.op_class::SimdFloatMultAcc              0                       # Class of executed instruction
system.cpu0.op_class::SimdFloatSqrt                 0                       # Class of executed instruction
system.cpu0.op_class::MemRead                       0                       # Class of executed instruction
system.cpu0.op_class::MemWrite                      0                       # Class of executed instruction
system.cpu0.op_class::FloatMemRead                  0                       # Class of executed instruction
system.cpu0.op_class::FloatMemWrite                 0                       # Class of executed instruction
system.cpu0.op_class::IprAccess                     0                       # Class of executed instruction
system.cpu0.op_class::InstPrefetch                  0                       # Class of executed instruction
system.cpu0.op_class::total                         0                       # Class of executed instruction
system.cpu0.dcache.tags.pwrStateResidencyTicks::UNDEFINED 6664885648500                       # Cumulative time (in ticks) in various power states
system.cpu0.dcache.tags.replacements            17605                       # number of replacements
system.cpu0.dcache.tags.tagsinuse          913.856311                       # Cycle average of tags in use
system.cpu0.dcache.tags.total_refs            1077860                       # Total number of references to valid blocks.
system.cpu0.dcache.tags.sampled_refs            18586                       # Sample count of references to valid blocks.
system.cpu0.dcache.tags.avg_refs            57.993113                       # Average number of references to valid blocks.
system.cpu0.dcache.tags.warmup_cycle                0                       # Cycle when the warmup percentage was hit.
system.cpu0.dcache.tags.occ_blocks::switch_cpus0.data    25.298196                       # Average occupied blocks per requestor
system.cpu0.dcache.tags.occ_blocks::switch_cpus_10.data   888.558116                       # Average occupied blocks per requestor
system.cpu0.dcache.tags.occ_percent::switch_cpus0.data     0.024705                       # Average percentage of cache occupancy
system.cpu0.dcache.tags.occ_percent::switch_cpus_10.data     0.867733                       # Average percentage of cache occupancy
system.cpu0.dcache.tags.occ_percent::total     0.892438                       # Average percentage of cache occupancy
system.cpu0.dcache.tags.occ_task_id_blocks::1024          981                       # Occupied blocks per task id
system.cpu0.dcache.tags.age_task_id_blocks_1024::3            9                       # Occupied blocks per task id
system.cpu0.dcache.tags.age_task_id_blocks_1024::4          972                       # Occupied blocks per task id
system.cpu0.dcache.tags.occ_task_id_percent::1024     0.958008                       # Percentage of cache occupancy per task id
system.cpu0.dcache.tags.tag_accesses          2252217                       # Number of tag accesses
system.cpu0.dcache.tags.data_accesses         2252217                       # Number of data accesses
system.cpu0.dcache.pwrStateResidencyTicks::UNDEFINED 6664885648500                       # Cumulative time (in ticks) in various power states
system.cpu0.dcache.ReadReq_hits::switch_cpus0.data         5744                       # number of ReadReq hits
system.cpu0.dcache.ReadReq_hits::switch_cpus_10.data       663942                       # number of ReadReq hits
system.cpu0.dcache.ReadReq_hits::total         669686                       # number of ReadReq hits
system.cpu0.dcache.WriteReq_hits::switch_cpus0.data         3169                       # number of WriteReq hits
system.cpu0.dcache.WriteReq_hits::switch_cpus_10.data       414094                       # number of WriteReq hits
system.cpu0.dcache.WriteReq_hits::total        417263                       # number of WriteReq hits
system.cpu0.dcache.SoftPFReq_hits::switch_cpus0.data            6                       # number of SoftPFReq hits
system.cpu0.dcache.SoftPFReq_hits::switch_cpus_10.data          119                       # number of SoftPFReq hits
system.cpu0.dcache.SoftPFReq_hits::total          125                       # number of SoftPFReq hits
system.cpu0.dcache.demand_hits::switch_cpus0.data         8913                       # number of demand (read+write) hits
system.cpu0.dcache.demand_hits::switch_cpus_10.data      1078036                       # number of demand (read+write) hits
system.cpu0.dcache.demand_hits::total         1086949                       # number of demand (read+write) hits
system.cpu0.dcache.overall_hits::switch_cpus0.data         8919                       # number of overall hits
system.cpu0.dcache.overall_hits::switch_cpus_10.data      1078155                       # number of overall hits
system.cpu0.dcache.overall_hits::total        1087074                       # number of overall hits
system.cpu0.dcache.ReadReq_misses::switch_cpus0.data           96                       # number of ReadReq misses
system.cpu0.dcache.ReadReq_misses::switch_cpus_10.data        19994                       # number of ReadReq misses
system.cpu0.dcache.ReadReq_misses::total        20090                       # number of ReadReq misses
system.cpu0.dcache.WriteReq_misses::switch_cpus0.data           59                       # number of WriteReq misses
system.cpu0.dcache.WriteReq_misses::switch_cpus_10.data         6956                       # number of WriteReq misses
system.cpu0.dcache.WriteReq_misses::total         7015                       # number of WriteReq misses
system.cpu0.dcache.SoftPFReq_misses::switch_cpus_10.data          423                       # number of SoftPFReq misses
system.cpu0.dcache.SoftPFReq_misses::total          423                       # number of SoftPFReq misses
system.cpu0.dcache.demand_misses::switch_cpus0.data          155                       # number of demand (read+write) misses
system.cpu0.dcache.demand_misses::switch_cpus_10.data        26950                       # number of demand (read+write) misses
system.cpu0.dcache.demand_misses::total         27105                       # number of demand (read+write) misses
system.cpu0.dcache.overall_misses::switch_cpus0.data          155                       # number of overall misses
system.cpu0.dcache.overall_misses::switch_cpus_10.data        27373                       # number of overall misses
system.cpu0.dcache.overall_misses::total        27528                       # number of overall misses
system.cpu0.dcache.ReadReq_miss_latency::switch_cpus_10.data    207037000                       # number of ReadReq miss cycles
system.cpu0.dcache.ReadReq_miss_latency::total    207037000                       # number of ReadReq miss cycles
system.cpu0.dcache.WriteReq_miss_latency::switch_cpus_10.data     99085000                       # number of WriteReq miss cycles
system.cpu0.dcache.WriteReq_miss_latency::total     99085000                       # number of WriteReq miss cycles
system.cpu0.dcache.demand_miss_latency::switch_cpus_10.data    306122000                       # number of demand (read+write) miss cycles
system.cpu0.dcache.demand_miss_latency::total    306122000                       # number of demand (read+write) miss cycles
system.cpu0.dcache.overall_miss_latency::switch_cpus_10.data    306122000                       # number of overall miss cycles
system.cpu0.dcache.overall_miss_latency::total    306122000                       # number of overall miss cycles
system.cpu0.dcache.ReadReq_accesses::switch_cpus0.data         5840                       # number of ReadReq accesses(hits+misses)
system.cpu0.dcache.ReadReq_accesses::switch_cpus_10.data       683936                       # number of ReadReq accesses(hits+misses)
system.cpu0.dcache.ReadReq_accesses::total       689776                       # number of ReadReq accesses(hits+misses)
system.cpu0.dcache.WriteReq_accesses::switch_cpus0.data         3228                       # number of WriteReq accesses(hits+misses)
system.cpu0.dcache.WriteReq_accesses::switch_cpus_10.data       421050                       # number of WriteReq accesses(hits+misses)
system.cpu0.dcache.WriteReq_accesses::total       424278                       # number of WriteReq accesses(hits+misses)
system.cpu0.dcache.SoftPFReq_accesses::switch_cpus0.data            6                       # number of SoftPFReq accesses(hits+misses)
system.cpu0.dcache.SoftPFReq_accesses::switch_cpus_10.data          542                       # number of SoftPFReq accesses(hits+misses)
system.cpu0.dcache.SoftPFReq_accesses::total          548                       # number of SoftPFReq accesses(hits+misses)
system.cpu0.dcache.demand_accesses::switch_cpus0.data         9068                       # number of demand (read+write) accesses
system.cpu0.dcache.demand_accesses::switch_cpus_10.data      1104986                       # number of demand (read+write) accesses
system.cpu0.dcache.demand_accesses::total      1114054                       # number of demand (read+write) accesses
system.cpu0.dcache.overall_accesses::switch_cpus0.data         9074                       # number of overall (read+write) accesses
system.cpu0.dcache.overall_accesses::switch_cpus_10.data      1105528                       # number of overall (read+write) accesses
system.cpu0.dcache.overall_accesses::total      1114602                       # number of overall (read+write) accesses
system.cpu0.dcache.ReadReq_miss_rate::switch_cpus0.data     0.016438                       # miss rate for ReadReq accesses
system.cpu0.dcache.ReadReq_miss_rate::switch_cpus_10.data     0.029234                       # miss rate for ReadReq accesses
system.cpu0.dcache.ReadReq_miss_rate::total     0.029125                       # miss rate for ReadReq accesses
system.cpu0.dcache.WriteReq_miss_rate::switch_cpus0.data     0.018278                       # miss rate for WriteReq accesses
system.cpu0.dcache.WriteReq_miss_rate::switch_cpus_10.data     0.016521                       # miss rate for WriteReq accesses
system.cpu0.dcache.WriteReq_miss_rate::total     0.016534                       # miss rate for WriteReq accesses
system.cpu0.dcache.SoftPFReq_miss_rate::switch_cpus_10.data     0.780443                       # miss rate for SoftPFReq accesses
system.cpu0.dcache.SoftPFReq_miss_rate::total     0.771898                       # miss rate for SoftPFReq accesses
system.cpu0.dcache.demand_miss_rate::switch_cpus0.data     0.017093                       # miss rate for demand accesses
system.cpu0.dcache.demand_miss_rate::switch_cpus_10.data     0.024389                       # miss rate for demand accesses
system.cpu0.dcache.demand_miss_rate::total     0.024330                       # miss rate for demand accesses
system.cpu0.dcache.overall_miss_rate::switch_cpus0.data     0.017082                       # miss rate for overall accesses
system.cpu0.dcache.overall_miss_rate::switch_cpus_10.data     0.024760                       # miss rate for overall accesses
system.cpu0.dcache.overall_miss_rate::total     0.024698                       # miss rate for overall accesses
system.cpu0.dcache.ReadReq_avg_miss_latency::switch_cpus_10.data 10354.956487                       # average ReadReq miss latency
system.cpu0.dcache.ReadReq_avg_miss_latency::total 10305.475361                       # average ReadReq miss latency
system.cpu0.dcache.WriteReq_avg_miss_latency::switch_cpus_10.data 14244.537090                       # average WriteReq miss latency
system.cpu0.dcache.WriteReq_avg_miss_latency::total 14124.732716                       # average WriteReq miss latency
system.cpu0.dcache.demand_avg_miss_latency::switch_cpus_10.data 11358.886827                       # average overall miss latency
system.cpu0.dcache.demand_avg_miss_latency::total 11293.931009                       # average overall miss latency
system.cpu0.dcache.overall_avg_miss_latency::switch_cpus_10.data 11183.355862                       # average overall miss latency
system.cpu0.dcache.overall_avg_miss_latency::total 11120.386516                       # average overall miss latency
system.cpu0.dcache.blocked_cycles::no_mshrs            0                       # number of cycles access was blocked
system.cpu0.dcache.blocked_cycles::no_targets            0                       # number of cycles access was blocked
system.cpu0.dcache.blocked::no_mshrs                0                       # number of cycles access was blocked
system.cpu0.dcache.blocked::no_targets              0                       # number of cycles access was blocked
system.cpu0.dcache.avg_blocked_cycles::no_mshrs          nan                       # average number of cycles each access was blocked
system.cpu0.dcache.avg_blocked_cycles::no_targets          nan                       # average number of cycles each access was blocked
system.cpu0.dcache.writebacks::writebacks         7046                       # number of writebacks
system.cpu0.dcache.writebacks::total             7046                       # number of writebacks
system.cpu0.dcache.WriteReq_mshr_hits::switch_cpus_10.data            5                       # number of WriteReq MSHR hits
system.cpu0.dcache.WriteReq_mshr_hits::total            5                       # number of WriteReq MSHR hits
system.cpu0.dcache.demand_mshr_hits::switch_cpus_10.data            5                       # number of demand (read+write) MSHR hits
system.cpu0.dcache.demand_mshr_hits::total            5                       # number of demand (read+write) MSHR hits
system.cpu0.dcache.overall_mshr_hits::switch_cpus_10.data            5                       # number of overall MSHR hits
system.cpu0.dcache.overall_mshr_hits::total            5                       # number of overall MSHR hits
system.cpu0.dcache.ReadReq_mshr_misses::switch_cpus_10.data        19994                       # number of ReadReq MSHR misses
system.cpu0.dcache.ReadReq_mshr_misses::total        19994                       # number of ReadReq MSHR misses
system.cpu0.dcache.WriteReq_mshr_misses::switch_cpus_10.data         6951                       # number of WriteReq MSHR misses
system.cpu0.dcache.WriteReq_mshr_misses::total         6951                       # number of WriteReq MSHR misses
system.cpu0.dcache.SoftPFReq_mshr_misses::switch_cpus_10.data          423                       # number of SoftPFReq MSHR misses
system.cpu0.dcache.SoftPFReq_mshr_misses::total          423                       # number of SoftPFReq MSHR misses
system.cpu0.dcache.demand_mshr_misses::switch_cpus_10.data        26945                       # number of demand (read+write) MSHR misses
system.cpu0.dcache.demand_mshr_misses::total        26945                       # number of demand (read+write) MSHR misses
system.cpu0.dcache.overall_mshr_misses::switch_cpus_10.data        27368                       # number of overall MSHR misses
system.cpu0.dcache.overall_mshr_misses::total        27368                       # number of overall MSHR misses
system.cpu0.dcache.ReadReq_mshr_uncacheable::switch_cpus_10.data           22                       # number of ReadReq MSHR uncacheable
system.cpu0.dcache.ReadReq_mshr_uncacheable::total           22                       # number of ReadReq MSHR uncacheable
system.cpu0.dcache.WriteReq_mshr_uncacheable::switch_cpus_10.data          516                       # number of WriteReq MSHR uncacheable
system.cpu0.dcache.WriteReq_mshr_uncacheable::total          516                       # number of WriteReq MSHR uncacheable
system.cpu0.dcache.overall_mshr_uncacheable_misses::switch_cpus_10.data          538                       # number of overall MSHR uncacheable misses
system.cpu0.dcache.overall_mshr_uncacheable_misses::total          538                       # number of overall MSHR uncacheable misses
system.cpu0.dcache.ReadReq_mshr_miss_latency::switch_cpus_10.data    187043000                       # number of ReadReq MSHR miss cycles
system.cpu0.dcache.ReadReq_mshr_miss_latency::total    187043000                       # number of ReadReq MSHR miss cycles
system.cpu0.dcache.WriteReq_mshr_miss_latency::switch_cpus_10.data     91483500                       # number of WriteReq MSHR miss cycles
system.cpu0.dcache.WriteReq_mshr_miss_latency::total     91483500                       # number of WriteReq MSHR miss cycles
system.cpu0.dcache.SoftPFReq_mshr_miss_latency::switch_cpus_10.data      4121000                       # number of SoftPFReq MSHR miss cycles
system.cpu0.dcache.SoftPFReq_mshr_miss_latency::total      4121000                       # number of SoftPFReq MSHR miss cycles
system.cpu0.dcache.demand_mshr_miss_latency::switch_cpus_10.data    278526500                       # number of demand (read+write) MSHR miss cycles
system.cpu0.dcache.demand_mshr_miss_latency::total    278526500                       # number of demand (read+write) MSHR miss cycles
system.cpu0.dcache.overall_mshr_miss_latency::switch_cpus_10.data    282647500                       # number of overall MSHR miss cycles
system.cpu0.dcache.overall_mshr_miss_latency::total    282647500                       # number of overall MSHR miss cycles
system.cpu0.dcache.ReadReq_mshr_uncacheable_latency::switch_cpus_10.data      3656000                       # number of ReadReq MSHR uncacheable cycles
system.cpu0.dcache.ReadReq_mshr_uncacheable_latency::total      3656000                       # number of ReadReq MSHR uncacheable cycles
system.cpu0.dcache.overall_mshr_uncacheable_latency::switch_cpus_10.data      3656000                       # number of overall MSHR uncacheable cycles
system.cpu0.dcache.overall_mshr_uncacheable_latency::total      3656000                       # number of overall MSHR uncacheable cycles
system.cpu0.dcache.ReadReq_mshr_miss_rate::switch_cpus_10.data     0.029234                       # mshr miss rate for ReadReq accesses
system.cpu0.dcache.ReadReq_mshr_miss_rate::total     0.028986                       # mshr miss rate for ReadReq accesses
system.cpu0.dcache.WriteReq_mshr_miss_rate::switch_cpus_10.data     0.016509                       # mshr miss rate for WriteReq accesses
system.cpu0.dcache.WriteReq_mshr_miss_rate::total     0.016383                       # mshr miss rate for WriteReq accesses
system.cpu0.dcache.SoftPFReq_mshr_miss_rate::switch_cpus_10.data     0.780443                       # mshr miss rate for SoftPFReq accesses
system.cpu0.dcache.SoftPFReq_mshr_miss_rate::total     0.771898                       # mshr miss rate for SoftPFReq accesses
system.cpu0.dcache.demand_mshr_miss_rate::switch_cpus_10.data     0.024385                       # mshr miss rate for demand accesses
system.cpu0.dcache.demand_mshr_miss_rate::total     0.024186                       # mshr miss rate for demand accesses
system.cpu0.dcache.overall_mshr_miss_rate::switch_cpus_10.data     0.024756                       # mshr miss rate for overall accesses
system.cpu0.dcache.overall_mshr_miss_rate::total     0.024554                       # mshr miss rate for overall accesses
system.cpu0.dcache.ReadReq_avg_mshr_miss_latency::switch_cpus_10.data  9354.956487                       # average ReadReq mshr miss latency
system.cpu0.dcache.ReadReq_avg_mshr_miss_latency::total  9354.956487                       # average ReadReq mshr miss latency
system.cpu0.dcache.WriteReq_avg_mshr_miss_latency::switch_cpus_10.data 13161.199827                       # average WriteReq mshr miss latency
system.cpu0.dcache.WriteReq_avg_mshr_miss_latency::total 13161.199827                       # average WriteReq mshr miss latency
system.cpu0.dcache.SoftPFReq_avg_mshr_miss_latency::switch_cpus_10.data  9742.316785                       # average SoftPFReq mshr miss latency
system.cpu0.dcache.SoftPFReq_avg_mshr_miss_latency::total  9742.316785                       # average SoftPFReq mshr miss latency
system.cpu0.dcache.demand_avg_mshr_miss_latency::switch_cpus_10.data 10336.852848                       # average overall mshr miss latency
system.cpu0.dcache.demand_avg_mshr_miss_latency::total 10336.852848                       # average overall mshr miss latency
system.cpu0.dcache.overall_avg_mshr_miss_latency::switch_cpus_10.data 10327.663695                       # average overall mshr miss latency
system.cpu0.dcache.overall_avg_mshr_miss_latency::total 10327.663695                       # average overall mshr miss latency
system.cpu0.dcache.ReadReq_avg_mshr_uncacheable_latency::switch_cpus_10.data 166181.818182                       # average ReadReq mshr uncacheable latency
system.cpu0.dcache.ReadReq_avg_mshr_uncacheable_latency::total 166181.818182                       # average ReadReq mshr uncacheable latency
system.cpu0.dcache.overall_avg_mshr_uncacheable_latency::switch_cpus_10.data  6795.539033                       # average overall mshr uncacheable latency
system.cpu0.dcache.overall_avg_mshr_uncacheable_latency::total  6795.539033                       # average overall mshr uncacheable latency
system.cpu0.dtb_walker_cache.tags.pwrStateResidencyTicks::UNDEFINED 6664885648500                       # Cumulative time (in ticks) in various power states
system.cpu0.dtb_walker_cache.tags.replacements          213                       # number of replacements
system.cpu0.dtb_walker_cache.tags.tagsinuse    14.999592                       # Cycle average of tags in use
system.cpu0.dtb_walker_cache.tags.total_refs          243                       # Total number of references to valid blocks.
[...]
system.tol2bus.pkt_count_system.cpu4.icache.mem_side::system.l2.cpu_side        38085                       # Packet count per connected master and slave (bytes)
system.tol2bus.pkt_count_system.cpu4.dcache.mem_side::system.l2.cpu_side        46500                       # Packet count per connected master and slave (bytes)
system.tol2bus.pkt_count_system.cpu4.itb_walker_cache.mem_side::system.l2.cpu_side           10                       # Packet count per connected master and slave (bytes)
system.tol2bus.pkt_count_system.cpu4.dtb_walker_cache.mem_side::system.l2.cpu_side          223                       # Packet count per connected master and slave (bytes)
system.tol2bus.pkt_count_system.cpu5.icache.mem_side::system.l2.cpu_side        36618                       # Packet count per connected master and slave (bytes)
system.tol2bus.pkt_count_system.cpu5.dcache.mem_side::system.l2.cpu_side        43356                       # Packet count per connected master and slave (bytes)
system.tol2bus.pkt_count_system.cpu5.itb_walker_cache.mem_side::system.l2.cpu_side           44                       # Packet count per connected master and slave (bytes)
system.tol2bus.pkt_count_system.cpu5.dtb_walker_cache.mem_side::system.l2.cpu_side          289                       # Packet count per connected master and slave (bytes)
system.tol2bus.pkt_count_system.cpu6.icache.mem_side::system.l2.cpu_side        38196                       # Packet count per connected master and slave (bytes)
system.tol2bus.pkt_count_system.cpu6.dcache.mem_side::system.l2.cpu_side        47616                       # Packet count per connected master and slave (bytes)
system.tol2bus.pkt_count_system.cpu6.itb_walker_cache.mem_side::system.l2.cpu_side           60                       # Packet count per connected master and slave (bytes)
system.tol2bus.pkt_count_system.cpu6.dtb_walker_cache.mem_side::system.l2.cpu_side          239                       # Packet count per connected master and slave (bytes)
system.tol2bus.pkt_count_system.cpu7.icache.mem_side::system.l2.cpu_side        37086                       # Packet count per connected master and slave (bytes)
system.tol2bus.pkt_count_system.cpu7.dcache.mem_side::system.l2.cpu_side        47709                       # Packet count per connected master and slave (bytes)
system.tol2bus.pkt_count_system.cpu7.itb_walker_cache.mem_side::system.l2.cpu_side           34                       # Packet count per connected master and slave (bytes)
system.tol2bus.pkt_count_system.cpu7.dtb_walker_cache.mem_side::system.l2.cpu_side          243                       # Packet count per connected master and slave (bytes)
system.tol2bus.pkt_count::total                681180                       # Packet count per connected master and slave (bytes)
system.tol2bus.pkt_size_system.cpu0.icache.mem_side::system.l2.cpu_side      2396672                       # Cumulative packet size per connected master and slave (bytes)
system.tol2bus.pkt_size_system.cpu0.dcache.mem_side::system.l2.cpu_side      1162868                       # Cumulative packet size per connected master and slave (bytes)
system.tol2bus.pkt_size_system.cpu0.itb_walker_cache.mem_side::system.l2.cpu_side        11584                       # Cumulative packet size per connected master and slave (bytes)
system.tol2bus.pkt_size_system.cpu0.dtb_walker_cache.mem_side::system.l2.cpu_side        13376                       # Cumulative packet size per connected master and slave (bytes)
system.tol2bus.pkt_size_system.cpu1.icache.mem_side::system.l2.cpu_side      1720448                       # Cumulative packet size per connected master and slave (bytes)
system.tol2bus.pkt_size_system.cpu1.dcache.mem_side::system.l2.cpu_side       884832                       # Cumulative packet size per connected master and slave (bytes)
system.tol2bus.pkt_size_system.cpu1.itb_walker_cache.mem_side::system.l2.cpu_side         9920                       # Cumulative packet size per connected master and slave (bytes)
system.tol2bus.pkt_size_system.cpu1.dtb_walker_cache.mem_side::system.l2.cpu_side        14016                       # Cumulative packet size per connected master and slave (bytes)
system.tol2bus.pkt_size_system.cpu2.icache.mem_side::system.l2.cpu_side      1508480                       # Cumulative packet size per connected master and slave (bytes)
system.tol2bus.pkt_size_system.cpu2.dcache.mem_side::system.l2.cpu_side       348096                       # Cumulative packet size per connected master and slave (bytes)
system.tol2bus.pkt_size_system.cpu2.itb_walker_cache.mem_side::system.l2.cpu_side          256                       # Cumulative packet size per connected master and slave (bytes)
system.tol2bus.pkt_size_system.cpu2.dtb_walker_cache.mem_side::system.l2.cpu_side         4032                       # Cumulative packet size per connected master and slave (bytes)
system.tol2bus.pkt_size_system.cpu3.icache.mem_side::system.l2.cpu_side      1526784                       # Cumulative packet size per connected master and slave (bytes)
system.tol2bus.pkt_size_system.cpu3.dcache.mem_side::system.l2.cpu_side       902702                       # Cumulative packet size per connected master and slave (bytes)
system.tol2bus.pkt_size_system.cpu3.itb_walker_cache.mem_side::system.l2.cpu_side          256                       # Cumulative packet size per connected master and slave (bytes)
system.tol2bus.pkt_size_system.cpu3.dtb_walker_cache.mem_side::system.l2.cpu_side         5120                       # Cumulative packet size per connected master and slave (bytes)
system.tol2bus.pkt_size_system.cpu4.icache.mem_side::system.l2.cpu_side      1624960                       # Cumulative packet size per connected master and slave (bytes)
system.tol2bus.pkt_size_system.cpu4.dcache.mem_side::system.l2.cpu_side       787788                       # Cumulative packet size per connected master and slave (bytes)
system.tol2bus.pkt_size_system.cpu4.itb_walker_cache.mem_side::system.l2.cpu_side          192                       # Cumulative packet size per connected master and slave (bytes)
system.tol2bus.pkt_size_system.cpu4.dtb_walker_cache.mem_side::system.l2.cpu_side         4608                       # Cumulative packet size per connected master and slave (bytes)
system.tol2bus.pkt_size_system.cpu5.icache.mem_side::system.l2.cpu_side      1562368                       # Cumulative packet size per connected master and slave (bytes)
system.tol2bus.pkt_size_system.cpu5.dcache.mem_side::system.l2.cpu_side       714708                       # Cumulative packet size per connected master and slave (bytes)
system.tol2bus.pkt_size_system.cpu5.itb_walker_cache.mem_side::system.l2.cpu_side          512                       # Cumulative packet size per connected master and slave (bytes)
system.tol2bus.pkt_size_system.cpu5.dtb_walker_cache.mem_side::system.l2.cpu_side         5184                       # Cumulative packet size per connected master and slave (bytes)
system.tol2bus.pkt_size_system.cpu6.icache.mem_side::system.l2.cpu_side      1629696                       # Cumulative packet size per connected master and slave (bytes)
system.tol2bus.pkt_size_system.cpu6.dcache.mem_side::system.l2.cpu_side       873932                       # Cumulative packet size per connected master and slave (bytes)
system.tol2bus.pkt_size_system.cpu6.itb_walker_cache.mem_side::system.l2.cpu_side          640                       # Cumulative packet size per connected master and slave (bytes)
system.tol2bus.pkt_size_system.cpu6.dtb_walker_cache.mem_side::system.l2.cpu_side         4608                       # Cumulative packet size per connected master and slave (bytes)
system.tol2bus.pkt_size_system.cpu7.icache.mem_side::system.l2.cpu_side      1582336                       # Cumulative packet size per connected master and slave (bytes)
system.tol2bus.pkt_size_system.cpu7.dcache.mem_side::system.l2.cpu_side       866808                       # Cumulative packet size per connected master and slave (bytes)
system.tol2bus.pkt_size_system.cpu7.itb_walker_cache.mem_side::system.l2.cpu_side          384                       # Cumulative packet size per connected master and slave (bytes)
system.tol2bus.pkt_size_system.cpu7.dtb_walker_cache.mem_side::system.l2.cpu_side         4928                       # Cumulative packet size per connected master and slave (bytes)
system.tol2bus.pkt_size::total               20173094                       # Cumulative packet size per connected master and slave (bytes)
system.tol2bus.snoops                          109126                       # Total snoops (count)
system.tol2bus.snoopTraffic                   6024896                       # Total snoop traffic (bytes)
system.tol2bus.snoop_fanout::samples           295194                       # Request fanout histogram
system.tol2bus.snoop_fanout::mean            2.948756                       # Request fanout histogram
system.tol2bus.snoop_fanout::stdev           2.790688                       # Request fanout histogram
system.tol2bus.snoop_fanout::underflows             0      0.00%      0.00% # Request fanout histogram
system.tol2bus.snoop_fanout::0                  67923     23.01%     23.01% # Request fanout histogram
system.tol2bus.snoop_fanout::1                  62635     21.22%     44.23% # Request fanout histogram
system.tol2bus.snoop_fanout::2                  52138     17.66%     61.89% # Request fanout histogram
system.tol2bus.snoop_fanout::3                  11107      3.76%     65.65% # Request fanout histogram
system.tol2bus.snoop_fanout::4                   3682      1.25%     66.90% # Request fanout histogram
system.tol2bus.snoop_fanout::5                   2605      0.88%     67.78% # Request fanout histogram
system.tol2bus.snoop_fanout::6                  25192      8.53%     76.32% # Request fanout histogram
system.tol2bus.snoop_fanout::7                  69500     23.54%     99.86% # Request fanout histogram
system.tol2bus.snoop_fanout::8                     49      0.02%     99.88% # Request fanout histogram
system.tol2bus.snoop_fanout::9                     25      0.01%     99.89% # Request fanout histogram
system.tol2bus.snoop_fanout::10                    49      0.02%     99.90% # Request fanout histogram
system.tol2bus.snoop_fanout::11                    48      0.02%     99.92% # Request fanout histogram
system.tol2bus.snoop_fanout::12                    62      0.02%     99.94% # Request fanout histogram
system.tol2bus.snoop_fanout::13                    84      0.03%     99.97% # Request fanout histogram
system.tol2bus.snoop_fanout::14                    78      0.03%     99.99% # Request fanout histogram
system.tol2bus.snoop_fanout::15                    17      0.01%    100.00% # Request fanout histogram
system.tol2bus.snoop_fanout::16                     0      0.00%    100.00% # Request fanout histogram
system.tol2bus.snoop_fanout::17                     0      0.00%    100.00% # Request fanout histogram
system.tol2bus.snoop_fanout::18                     0      0.00%    100.00% # Request fanout histogram
system.tol2bus.snoop_fanout::19                     0      0.00%    100.00% # Request fanout histogram
system.tol2bus.snoop_fanout::20                     0      0.00%    100.00% # Request fanout histogram
system.tol2bus.snoop_fanout::21                     0      0.00%    100.00% # Request fanout histogram
system.tol2bus.snoop_fanout::22                     0      0.00%    100.00% # Request fanout histogram
system.tol2bus.snoop_fanout::23                     0      0.00%    100.00% # Request fanout histogram
system.tol2bus.snoop_fanout::24                     0      0.00%    100.00% # Request fanout histogram
system.tol2bus.snoop_fanout::25                     0      0.00%    100.00% # Request fanout histogram
system.tol2bus.snoop_fanout::26                     0      0.00%    100.00% # Request fanout histogram
system.tol2bus.snoop_fanout::27                     0      0.00%    100.00% # Request fanout histogram
system.tol2bus.snoop_fanout::28                     0      0.00%    100.00% # Request fanout histogram
system.tol2bus.snoop_fanout::29                     0      0.00%    100.00% # Request fanout histogram
system.tol2bus.snoop_fanout::30                     0      0.00%    100.00% # Request fanout histogram
system.tol2bus.snoop_fanout::31                     0      0.00%    100.00% # Request fanout histogram
system.tol2bus.snoop_fanout::32                     0      0.00%    100.00% # Request fanout histogram
system.tol2bus.snoop_fanout::overflows              0      0.00%    100.00% # Request fanout histogram
system.tol2bus.snoop_fanout::min_value              0                       # Request fanout histogram
system.tol2bus.snoop_fanout::max_value             15                       # Request fanout histogram
system.tol2bus.snoop_fanout::total             295194                       # Request fanout histogram
system.tol2bus.reqLayer0.occupancy          392031998                       # Layer occupancy (ticks)
system.tol2bus.reqLayer0.utilization              0.0                       # Layer utilization (%)
system.tol2bus.snoopLayer0.occupancy           181479                       # Layer occupancy (ticks)
system.tol2bus.snoopLayer0.utilization            0.0                       # Layer utilization (%)
system.tol2bus.respLayer0.occupancy          27786998                       # Layer occupancy (ticks)
system.tol2bus.respLayer0.utilization             0.0                       # Layer utilization (%)
system.tol2bus.respLayer1.occupancy          36847497                       # Layer occupancy (ticks)
system.tol2bus.respLayer1.utilization             0.0                       # Layer utilization (%)
system.tol2bus.respLayer2.occupancy            261000                       # Layer occupancy (ticks)
system.tol2bus.respLayer2.utilization             0.0                       # Layer utilization (%)
system.tol2bus.respLayer3.occupancy            349500                       # Layer occupancy (ticks)
system.tol2bus.respLayer3.utilization             0.0                       # Layer utilization (%)
system.tol2bus.respLayer4.occupancy          20163496                       # Layer occupancy (ticks)
system.tol2bus.respLayer4.utilization             0.0                       # Layer utilization (%)
system.tol2bus.respLayer5.occupancy          32642000                       # Layer occupancy (ticks)
system.tol2bus.respLayer5.utilization             0.0                       # Layer utilization (%)
system.tol2bus.respLayer6.occupancy            349500                       # Layer occupancy (ticks)
system.tol2bus.respLayer6.utilization             0.0                       # Layer utilization (%)
system.tol2bus.respLayer7.occupancy            381000                       # Layer occupancy (ticks)
system.tol2bus.respLayer7.utilization             0.0                       # Layer utilization (%)
system.tol2bus.respLayer8.occupancy          17677500                       # Layer occupancy (ticks)
system.tol2bus.respLayer8.utilization             0.0                       # Layer utilization (%)
system.tol2bus.respLayer9.occupancy          10422502                       # Layer occupancy (ticks)
system.tol2bus.respLayer9.utilization             0.0                       # Layer utilization (%)
system.tol2bus.respLayer10.occupancy            19500                       # Layer occupancy (ticks)
system.tol2bus.respLayer10.utilization            0.0                       # Layer utilization (%)
system.tol2bus.respLayer11.occupancy           112500                       # Layer occupancy (ticks)
system.tol2bus.respLayer11.utilization            0.0                       # Layer utilization (%)
system.tol2bus.respLayer12.occupancy         17892000                       # Layer occupancy (ticks)
system.tol2bus.respLayer12.utilization            0.0                       # Layer utilization (%)
system.tol2bus.respLayer13.occupancy         34372500                       # Layer occupancy (ticks)
system.tol2bus.respLayer13.utilization            0.0                       # Layer utilization (%)
system.tol2bus.respLayer14.occupancy            15000                       # Layer occupancy (ticks)
system.tol2bus.respLayer14.utilization            0.0                       # Layer utilization (%)
system.tol2bus.respLayer15.occupancy           147000                       # Layer occupancy (ticks)
system.tol2bus.respLayer15.utilization            0.0                       # Layer utilization (%)
system.tol2bus.respLayer16.occupancy         19042500                       # Layer occupancy (ticks)
system.tol2bus.respLayer16.utilization            0.0                       # Layer utilization (%)
system.tol2bus.respLayer17.occupancy         33386000                       # Layer occupancy (ticks)
system.tol2bus.respLayer17.utilization            0.0                       # Layer utilization (%)
system.tol2bus.respLayer18.occupancy             9000                       # Layer occupancy (ticks)
system.tol2bus.respLayer18.utilization            0.0                       # Layer utilization (%)
system.tol2bus.respLayer19.occupancy           129499                       # Layer occupancy (ticks)
system.tol2bus.respLayer19.utilization            0.0                       # Layer utilization (%)
system.tol2bus.respLayer20.occupancy         18309499                       # Layer occupancy (ticks)
system.tol2bus.respLayer20.utilization            0.0                       # Layer utilization (%)
system.tol2bus.respLayer21.occupancy         30672496                       # Layer occupancy (ticks)
system.tol2bus.respLayer21.utilization            0.0                       # Layer utilization (%)
system.tol2bus.respLayer22.occupancy            33000                       # Layer occupancy (ticks)
system.tol2bus.respLayer22.utilization            0.0                       # Layer utilization (%)
system.tol2bus.respLayer23.occupancy           169500                       # Layer occupancy (ticks)
system.tol2bus.respLayer23.utilization            0.0                       # Layer utilization (%)
system.tol2bus.respLayer24.occupancy         19098499                       # Layer occupancy (ticks)
system.tol2bus.respLayer24.utilization            0.0                       # Layer utilization (%)
system.tol2bus.respLayer25.occupancy         33438999                       # Layer occupancy (ticks)
system.tol2bus.respLayer25.utilization            0.0                       # Layer utilization (%)
system.tol2bus.respLayer26.occupancy            39000                       # Layer occupancy (ticks)
system.tol2bus.respLayer26.utilization            0.0                       # Layer utilization (%)
system.tol2bus.respLayer27.occupancy           135000                       # Layer occupancy (ticks)
system.tol2bus.respLayer27.utilization            0.0                       # Layer utilization (%)
system.tol2bus.respLayer28.occupancy         18543499                       # Layer occupancy (ticks)
system.tol2bus.respLayer28.utilization            0.0                       # Layer utilization (%)
system.tol2bus.respLayer29.occupancy         33540000                       # Layer occupancy (ticks)
system.tol2bus.respLayer29.utilization            0.0                       # Layer utilization (%)
system.tol2bus.respLayer30.occupancy            27000                       # Layer occupancy (ticks)
system.tol2bus.respLayer30.utilization            0.0                       # Layer utilization (%)
system.tol2bus.respLayer31.occupancy           138000                       # Layer occupancy (ticks)
system.tol2bus.respLayer31.utilization            0.0                       # Layer utilization (%)

---------- End Simulation Statistics   ----------
