
---------- Begin Simulation Statistics ----------
sim_seconds                                  0.105464                       # Number of seconds simulated
sim_ticks                                105463711000                       # Number of ticks simulated
final_tick                               105463711000                       # Number of ticks from beginning of simulation (restored from checkpoints and never reset)
sim_freq                                 1000000000000                       # Frequency of simulated ticks
host_inst_rate                                  69497                       # Simulator instruction rate (inst/s)
host_op_rate                                    72311                       # Simulator op (including micro ops) rate (op/s)
host_tick_rate                               18198402                       # Simulator tick rate (ticks/s)
host_mem_usage                                 666344                       # Number of bytes of host memory used
host_seconds                                  5795.22                       # Real time elapsed on the host
sim_insts                                   402752520                       # Number of instructions simulated
sim_ops                                     419059513                       # Number of ops (including micro ops) simulated
system.voltage_domain.voltage                       1                       # Voltage in Volts
system.clk_domain.clock                          1000                       # Clock period in ticks
system.mem_ctrls.pwrStateResidencyTicks::UNDEFINED 105463711000                       # Cumulative time (in ticks) in various power states
system.mem_ctrls.bytes_read::cpu.inst           71360                       # Number of bytes read from this memory
system.mem_ctrls.bytes_read::cpu.data           32768                       # Number of bytes read from this memory
system.mem_ctrls.bytes_read::l2.prefetcher        97536                       # Number of bytes read from this memory
system.mem_ctrls.bytes_read::total             201664                       # Number of bytes read from this memory
system.mem_ctrls.bytes_inst_read::cpu.inst        71360                       # Number of instructions bytes read from this memory
system.mem_ctrls.bytes_inst_read::total         71360                       # Number of instructions bytes read from this memory
system.mem_ctrls.num_reads::cpu.inst             1115                       # Number of read requests responded to by this memory
system.mem_ctrls.num_reads::cpu.data              512                       # Number of read requests responded to by this memory
system.mem_ctrls.num_reads::l2.prefetcher         1524                       # Number of read requests responded to by this memory
system.mem_ctrls.num_reads::total                3151                       # Number of read requests responded to by this memory
system.mem_ctrls.bw_read::cpu.inst             676631                       # Total read bandwidth from this memory (bytes/s)
system.mem_ctrls.bw_read::cpu.data             310704                       # Total read bandwidth from this memory (bytes/s)
system.mem_ctrls.bw_read::l2.prefetcher        924830                       # Total read bandwidth from this memory (bytes/s)
system.mem_ctrls.bw_read::total               1912165                       # Total read bandwidth from this memory (bytes/s)
system.mem_ctrls.bw_inst_read::cpu.inst        676631                       # Instruction read bandwidth from this memory (bytes/s)
system.mem_ctrls.bw_inst_read::total           676631                       # Instruction read bandwidth from this memory (bytes/s)
system.mem_ctrls.bw_total::cpu.inst            676631                       # Total bandwidth to/from this memory (bytes/s)
system.mem_ctrls.bw_total::cpu.data            310704                       # Total bandwidth to/from this memory (bytes/s)
system.mem_ctrls.bw_total::l2.prefetcher       924830                       # Total bandwidth to/from this memory (bytes/s)
system.mem_ctrls.bw_total::total              1912165                       # Total bandwidth to/from this memory (bytes/s)
system.mem_ctrls.readReqs                        3151                       # Number of read requests accepted
system.mem_ctrls.writeReqs                          0                       # Number of write requests accepted
system.mem_ctrls.readBursts                      3151                       # Number of DRAM read bursts, including those serviced by the write queue
system.mem_ctrls.writeBursts                        0                       # Number of DRAM write bursts, including those merged in the write queue
system.mem_ctrls.bytesReadDRAM                 201664                       # Total number of bytes read from DRAM
system.mem_ctrls.bytesReadWrQ                       0                       # Total number of bytes read from write queue
system.mem_ctrls.bytesWritten                       0                       # Total number of bytes written to DRAM
system.mem_ctrls.bytesReadSys                  201664                       # Total read bytes from the system interface side
system.mem_ctrls.bytesWrittenSys                    0                       # Total written bytes from the system interface side
system.mem_ctrls.servicedByWrQ                      0                       # Number of DRAM read bursts serviced by the write queue
system.mem_ctrls.mergedWrBursts                     0                       # Number of DRAM write bursts merged with an existing one
system.mem_ctrls.neitherReadNorWriteReqs            0                       # Number of requests that are neither read nor write
system.mem_ctrls.perBankRdBursts::0               125                       # Per bank write bursts
system.mem_ctrls.perBankRdBursts::1               157                       # Per bank write bursts
system.mem_ctrls.perBankRdBursts::2               228                       # Per bank write bursts
system.mem_ctrls.perBankRdBursts::3               203                       # Per bank write bursts
system.mem_ctrls.perBankRdBursts::4               254                       # Per bank write bursts
system.mem_ctrls.perBankRdBursts::5               282                       # Per bank write bursts
system.mem_ctrls.perBankRdBursts::6               201                       # Per bank write bursts
system.mem_ctrls.perBankRdBursts::7               207                       # Per bank write bursts
system.mem_ctrls.perBankRdBursts::8               233                       # Per bank write bursts
system.mem_ctrls.perBankRdBursts::9               141                       # Per bank write bursts
system.mem_ctrls.perBankRdBursts::10              248                       # Per bank write bursts
system.mem_ctrls.perBankRdBursts::11              151                       # Per bank write bursts
system.mem_ctrls.perBankRdBursts::12              207                       # Per bank write bursts
system.mem_ctrls.perBankRdBursts::13              408                       # Per bank write bursts
system.mem_ctrls.perBankRdBursts::14               72                       # Per bank write bursts
system.mem_ctrls.perBankRdBursts::15               34                       # Per bank write bursts
system.mem_ctrls.perBankWrBursts::0                 0                       # Per bank write bursts
system.mem_ctrls.perBankWrBursts::1                 0                       # Per bank write bursts
system.mem_ctrls.perBankWrBursts::2                 0                       # Per bank write bursts
system.mem_ctrls.perBankWrBursts::3                 0                       # Per bank write bursts
system.mem_ctrls.perBankWrBursts::4                 0                       # Per bank write bursts
system.mem_ctrls.perBankWrBursts::5                 0                       # Per bank write bursts
system.mem_ctrls.perBankWrBursts::6                 0                       # Per bank write bursts
system.mem_ctrls.perBankWrBursts::7                 0                       # Per bank write bursts
system.mem_ctrls.perBankWrBursts::8                 0                       # Per bank write bursts
system.mem_ctrls.perBankWrBursts::9                 0                       # Per bank write bursts
system.mem_ctrls.perBankWrBursts::10                0                       # Per bank write bursts
system.mem_ctrls.perBankWrBursts::11                0                       # Per bank write bursts
system.mem_ctrls.perBankWrBursts::12                0                       # Per bank write bursts
system.mem_ctrls.perBankWrBursts::13                0                       # Per bank write bursts
system.mem_ctrls.perBankWrBursts::14                0                       # Per bank write bursts
system.mem_ctrls.perBankWrBursts::15                0                       # Per bank write bursts
system.mem_ctrls.numRdRetry                         0                       # Number of times read queue was full causing retry
system.mem_ctrls.numWrRetry                         0                       # Number of times write queue was full causing retry
system.mem_ctrls.totGap                  105463646500                       # Total gap between requests
system.mem_ctrls.readPktSize::0                     0                       # Read request sizes (log2)
system.mem_ctrls.readPktSize::1                     0                       # Read request sizes (log2)
system.mem_ctrls.readPktSize::2                     0                       # Read request sizes (log2)
system.mem_ctrls.readPktSize::3                     0                       # Read request sizes (log2)
system.mem_ctrls.readPktSize::4                     0                       # Read request sizes (log2)
system.mem_ctrls.readPktSize::5                     0                       # Read request sizes (log2)
system.mem_ctrls.readPktSize::6                  3151                       # Read request sizes (log2)
system.mem_ctrls.writePktSize::0                    0                       # Write request sizes (log2)
system.mem_ctrls.writePktSize::1                    0                       # Write request sizes (log2)
system.mem_ctrls.writePktSize::2                    0                       # Write request sizes (log2)
system.mem_ctrls.writePktSize::3                    0                       # Write request sizes (log2)
system.mem_ctrls.writePktSize::4                    0                       # Write request sizes (log2)
system.mem_ctrls.writePktSize::5                    0                       # Write request sizes (log2)
system.mem_ctrls.writePktSize::6                    0                       # Write request sizes (log2)
system.mem_ctrls.rdQLenPdf::0                    1256                       # What read queue length does an incoming req see
system.mem_ctrls.rdQLenPdf::1                    1224                       # What read queue length does an incoming req see
system.mem_ctrls.rdQLenPdf::2                     299                       # What read queue length does an incoming req see
system.mem_ctrls.rdQLenPdf::3                     140                       # What read queue length does an incoming req see
system.mem_ctrls.rdQLenPdf::4                      77                       # What read queue length does an incoming req see
system.mem_ctrls.rdQLenPdf::5                      46                       # What read queue length does an incoming req see
system.mem_ctrls.rdQLenPdf::6                      35                       # What read queue length does an incoming req see
system.mem_ctrls.rdQLenPdf::7                      34                       # What read queue length does an incoming req see
system.mem_ctrls.rdQLenPdf::8                      28                       # What read queue length does an incoming req see
system.mem_ctrls.rdQLenPdf::9                       4                       # What read queue length does an incoming req see
system.mem_ctrls.rdQLenPdf::10                      4                       # What read queue length does an incoming req see
system.mem_ctrls.rdQLenPdf::11                      3                       # What read queue length does an incoming req see
system.mem_ctrls.rdQLenPdf::12                      1                       # What read queue length does an incoming req see
system.mem_ctrls.rdQLenPdf::13                      0                       # What read queue length does an incoming req see
system.mem_ctrls.rdQLenPdf::14                      0                       # What read queue length does an incoming req see
system.mem_ctrls.rdQLenPdf::15                      0                       # What read queue length does an incoming req see
system.mem_ctrls.rdQLenPdf::16                      0                       # What read queue length does an incoming req see
system.mem_ctrls.rdQLenPdf::17                      0                       # What read queue length does an incoming req see
system.mem_ctrls.rdQLenPdf::18                      0                       # What read queue length does an incoming req see
system.mem_ctrls.rdQLenPdf::19                      0                       # What read queue length does an incoming req see
system.mem_ctrls.rdQLenPdf::20                      0                       # What read queue length does an incoming req see
system.mem_ctrls.rdQLenPdf::21                      0                       # What read queue length does an incoming req see
system.mem_ctrls.rdQLenPdf::22                      0                       # What read queue length does an incoming req see
system.mem_ctrls.rdQLenPdf::23                      0                       # What read queue length does an incoming req see
system.mem_ctrls.rdQLenPdf::24                      0                       # What read queue length does an incoming req see
system.mem_ctrls.rdQLenPdf::25                      0                       # What read queue length does an incoming req see
system.mem_ctrls.rdQLenPdf::26                      0                       # What read queue length does an incoming req see
system.mem_ctrls.rdQLenPdf::27                      0                       # What read queue length does an incoming req see
system.mem_ctrls.rdQLenPdf::28                      0                       # What read queue length does an incoming req see
system.mem_ctrls.rdQLenPdf::29                      0                       # What read queue length does an incoming req see
system.mem_ctrls.rdQLenPdf::30                      0                       # What read queue length does an incoming req see
system.mem_ctrls.rdQLenPdf::31                      0                       # What read queue length does an incoming req see
system.mem_ctrls.wrQLenPdf::0                       0                       # What write queue length does an incoming req see
system.mem_ctrls.wrQLenPdf::1                       0                       # What write queue length does an incoming req see
system.mem_ctrls.wrQLenPdf::2                       0                       # What write queue length does an incoming req see
system.mem_ctrls.wrQLenPdf::3                       0                       # What write queue length does an incoming req see
system.mem_ctrls.wrQLenPdf::4                       0                       # What write queue length does an incoming req see
system.mem_ctrls.wrQLenPdf::5                       0                       # What write queue length does an incoming req see
system.mem_ctrls.wrQLenPdf::6                       0                       # What write queue length does an incoming req see
system.mem_ctrls.wrQLenPdf::7                       0                       # What write queue length does an incoming req see
system.mem_ctrls.wrQLenPdf::8                       0                       # What write queue length does an incoming req see
system.mem_ctrls.wrQLenPdf::9                       0                       # What write queue length does an incoming req see
system.mem_ctrls.wrQLenPdf::10                      0                       # What write queue length does an incoming req see
system.mem_ctrls.wrQLenPdf::11                      0                       # What write queue length does an incoming req see
system.mem_ctrls.wrQLenPdf::12                      0                       # What write queue length does an incoming req see
system.mem_ctrls.wrQLenPdf::13                      0                       # What write queue length does an incoming req see
system.mem_ctrls.wrQLenPdf::14                      0                       # What write queue length does an incoming req see
system.mem_ctrls.wrQLenPdf::15                      0                       # What write queue length does an incoming req see
system.mem_ctrls.wrQLenPdf::16                      0                       # What write queue length does an incoming req see
system.mem_ctrls.wrQLenPdf::17                      0                       # What write queue length does an incoming req see
system.mem_ctrls.wrQLenPdf::18                      0                       # What write queue length does an incoming req see
system.mem_ctrls.wrQLenPdf::19                      0                       # What write queue length does an incoming req see
system.mem_ctrls.wrQLenPdf::20                      0                       # What write queue length does an incoming req see
system.mem_ctrls.wrQLenPdf::21                      0                       # What write queue length does an incoming req see
system.mem_ctrls.wrQLenPdf::22                      0                       # What write queue length does an incoming req see
system.mem_ctrls.wrQLenPdf::23                      0                       # What write queue length does an incoming req see
system.mem_ctrls.wrQLenPdf::24                      0                       # What write queue length does an incoming req see
system.mem_ctrls.wrQLenPdf::25                      0                       # What write queue length does an incoming req see
system.mem_ctrls.wrQLenPdf::26                      0                       # What write queue length does an incoming req see
system.mem_ctrls.wrQLenPdf::27                      0                       # What write queue length does an incoming req see
system.mem_ctrls.wrQLenPdf::28                      0                       # What write queue length does an incoming req see
system.mem_ctrls.wrQLenPdf::29                      0                       # What write queue length does an incoming req see
system.mem_ctrls.wrQLenPdf::30                      0                       # What write queue length does an incoming req see
system.mem_ctrls.wrQLenPdf::31                      0                       # What write queue length does an incoming req see
system.mem_ctrls.wrQLenPdf::32                      0                       # What write queue length does an incoming req see
system.mem_ctrls.wrQLenPdf::33                      0                       # What write queue length does an incoming req see
system.mem_ctrls.wrQLenPdf::34                      0                       # What write queue length does an incoming req see
system.mem_ctrls.wrQLenPdf::35                      0                       # What write queue length does an incoming req see
system.mem_ctrls.wrQLenPdf::36                      0                       # What write queue length does an incoming req see
system.mem_ctrls.wrQLenPdf::37                      0                       # What write queue length does an incoming req see
system.mem_ctrls.wrQLenPdf::38                      0                       # What write queue length does an incoming req see
system.mem_ctrls.wrQLenPdf::39                      0                       # What write queue length does an incoming req see
system.mem_ctrls.wrQLenPdf::40                      0                       # What write queue length does an incoming req see
system.mem_ctrls.wrQLenPdf::41                      0                       # What write queue length does an incoming req see
system.mem_ctrls.wrQLenPdf::42                      0                       # What write queue length does an incoming req see
system.mem_ctrls.wrQLenPdf::43                      0                       # What write queue length does an incoming req see
system.mem_ctrls.wrQLenPdf::44                      0                       # What write queue length does an incoming req see
system.mem_ctrls.wrQLenPdf::45                      0                       # What write queue length does an incoming req see
system.mem_ctrls.wrQLenPdf::46                      0                       # What write queue length does an incoming req see
system.mem_ctrls.wrQLenPdf::47                      0                       # What write queue length does an incoming req see
system.mem_ctrls.wrQLenPdf::48                      0                       # What write queue length does an incoming req see
system.mem_ctrls.wrQLenPdf::49                      0                       # What write queue length does an incoming req see
system.mem_ctrls.wrQLenPdf::50                      0                       # What write queue length does an incoming req see
system.mem_ctrls.wrQLenPdf::51                      0                       # What write queue length does an incoming req see
system.mem_ctrls.wrQLenPdf::52                      0                       # What write queue length does an incoming req see
system.mem_ctrls.wrQLenPdf::53                      0                       # What write queue length does an incoming req see
system.mem_ctrls.wrQLenPdf::54                      0                       # What write queue length does an incoming req see
system.mem_ctrls.wrQLenPdf::55                      0                       # What write queue length does an incoming req see
system.mem_ctrls.wrQLenPdf::56                      0                       # What write queue length does an incoming req see
system.mem_ctrls.wrQLenPdf::57                      0                       # What write queue length does an incoming req see
system.mem_ctrls.wrQLenPdf::58                      0                       # What write queue length does an incoming req see
system.mem_ctrls.wrQLenPdf::59                      0                       # What write queue length does an incoming req see
system.mem_ctrls.wrQLenPdf::60                      0                       # What write queue length does an incoming req see
system.mem_ctrls.wrQLenPdf::61                      0                       # What write queue length does an incoming req see
system.mem_ctrls.wrQLenPdf::62                      0                       # What write queue length does an incoming req see
system.mem_ctrls.wrQLenPdf::63                      0                       # What write queue length does an incoming req see
system.mem_ctrls.bytesPerActivate::samples          563                       # Bytes accessed per row activation
system.mem_ctrls.bytesPerActivate::mean    355.694494                       # Bytes accessed per row activation
system.mem_ctrls.bytesPerActivate::gmean   193.070160                       # Bytes accessed per row activation
system.mem_ctrls.bytesPerActivate::stdev   377.654560                       # Bytes accessed per row activation
system.mem_ctrls.bytesPerActivate::0-127          229     40.67%     40.67% # Bytes accessed per row activation
system.mem_ctrls.bytesPerActivate::128-255          101     17.94%     58.61% # Bytes accessed per row activation
system.mem_ctrls.bytesPerActivate::256-383           46      8.17%     66.79% # Bytes accessed per row activation
system.mem_ctrls.bytesPerActivate::384-511           26      4.62%     71.40% # Bytes accessed per row activation
system.mem_ctrls.bytesPerActivate::512-639           24      4.26%     75.67% # Bytes accessed per row activation
system.mem_ctrls.bytesPerActivate::640-767           12      2.13%     77.80% # Bytes accessed per row activation
system.mem_ctrls.bytesPerActivate::768-895            6      1.07%     78.86% # Bytes accessed per row activation
system.mem_ctrls.bytesPerActivate::896-1023            4      0.71%     79.57% # Bytes accessed per row activation
system.mem_ctrls.bytesPerActivate::1024-1151          115     20.43%    100.00% # Bytes accessed per row activation
system.mem_ctrls.bytesPerActivate::total          563                       # Bytes accessed per row activation
system.mem_ctrls.totQLat                    132601866                       # Total ticks spent queuing
system.mem_ctrls.totMemAccLat               191683116                       # Total ticks spent from burst creation until serviced by the DRAM
system.mem_ctrls.totBusLat                   15755000                       # Total ticks spent in databus transfers
system.mem_ctrls.avgQLat                     42082.47                       # Average queueing delay per DRAM burst
system.mem_ctrls.avgBusLat                    5000.00                       # Average bus latency per DRAM burst
system.mem_ctrls.avgMemAccLat                60832.47                       # Average memory access latency per DRAM burst
system.mem_ctrls.avgRdBW                         1.91                       # Average DRAM read bandwidth in MiByte/s
system.mem_ctrls.avgWrBW                         0.00                       # Average achieved write bandwidth in MiByte/s
system.mem_ctrls.avgRdBWSys                      1.91                       # Average system read bandwidth in MiByte/s
system.mem_ctrls.avgWrBWSys                      0.00                       # Average system write bandwidth in MiByte/s
system.mem_ctrls.peakBW                      12800.00                       # Theoretical peak bandwidth in MiByte/s
system.mem_ctrls.busUtil                         0.01                       # Data bus utilization in percentage
system.mem_ctrls.busUtilRead                     0.01                       # Data bus utilization in percentage for reads
system.mem_ctrls.busUtilWrite                    0.00                       # Data bus utilization in percentage for writes
system.mem_ctrls.avgRdQLen                       1.59                       # Average read queue length when enqueuing
system.mem_ctrls.avgWrQLen                       0.00                       # Average write queue length when enqueuing
system.mem_ctrls.readRowHits                     2582                       # Number of row buffer hits during reads
system.mem_ctrls.writeRowHits                       0                       # Number of row buffer hits during writes
system.mem_ctrls.readRowHitRate                 81.94                       # Row buffer hit rate for reads
system.mem_ctrls.writeRowHitRate                  nan                       # Row buffer hit rate for writes
system.mem_ctrls.avgGap                   33469897.33                       # Average gap between requests
system.mem_ctrls.pageHitRate                    81.94                       # Row buffer hit rate, read and write combined
system.mem_ctrls_0.actEnergy                  1906380                       # Energy for activate commands per rank (pJ)
system.mem_ctrls_0.preEnergy                  1001880                       # Energy for precharge commands per rank (pJ)
system.mem_ctrls_0.readEnergy                11830980                       # Energy for read commands per rank (pJ)
system.mem_ctrls_0.writeEnergy                      0                       # Energy for write commands per rank (pJ)
system.mem_ctrls_0.refreshEnergy         135220800.000000                       # Energy for refresh commands per rank (pJ)
system.mem_ctrls_0.actBackEnergy             39944460                       # Energy for active background per rank (pJ)
system.mem_ctrls_0.preBackEnergy              8537760                       # Energy for precharge background per rank (pJ)
system.mem_ctrls_0.actPowerDownEnergy       268389060                       # Energy for active power-down per rank (pJ)
system.mem_ctrls_0.prePowerDownEnergy       212177760                       # Energy for precharge power-down per rank (pJ)
system.mem_ctrls_0.selfRefreshEnergy      25046406060                       # Energy for self refresh per rank (pJ)
system.mem_ctrls_0.totalEnergy            25725438090                       # Total energy per rank (pJ)
system.mem_ctrls_0.averagePower            243.926919                       # Core power per rank (mW)
system.mem_ctrls_0.totalIdleTime         105353770544                       # Total Idle time Per DRAM Rank
system.mem_ctrls_0.memoryStateTime::IDLE     17473000                       # Time in different power states
system.mem_ctrls_0.memoryStateTime::REF      57590000                       # Time in different power states
system.mem_ctrls_0.memoryStateTime::SREF 104212706500                       # Time in different power states
system.mem_ctrls_0.memoryStateTime::PRE_PDN    552542743                       # Time in different power states
system.mem_ctrls_0.memoryStateTime::ACT      34844706                       # Time in different power states
system.mem_ctrls_0.memoryStateTime::ACT_PDN    588554051                       # Time in different power states
system.mem_ctrls_1.actEnergy                  2156280                       # Energy for activate commands per rank (pJ)
system.mem_ctrls_1.preEnergy                  1134705                       # Energy for precharge commands per rank (pJ)
system.mem_ctrls_1.readEnergy                10667160                       # Energy for read commands per rank (pJ)
system.mem_ctrls_1.writeEnergy                      0                       # Energy for write commands per rank (pJ)
system.mem_ctrls_1.refreshEnergy         210821520.000000                       # Energy for refresh commands per rank (pJ)
system.mem_ctrls_1.actBackEnergy             52195470                       # Energy for active background per rank (pJ)
system.mem_ctrls_1.preBackEnergy             13798560                       # Energy for precharge background per rank (pJ)
system.mem_ctrls_1.actPowerDownEnergy       426735060                       # Energy for active power-down per rank (pJ)
system.mem_ctrls_1.prePowerDownEnergy       317150880                       # Energy for precharge power-down per rank (pJ)
system.mem_ctrls_1.selfRefreshEnergy      24910363800                       # Energy for self refresh per rank (pJ)
system.mem_ctrls_1.totalEnergy            25945023435                       # Total energy per rank (pJ)
system.mem_ctrls_1.averagePower            246.009013                       # Core power per rank (mW)
system.mem_ctrls_1.totalIdleTime         105313165547                       # Total Idle time Per DRAM Rank
system.mem_ctrls_1.memoryStateTime::IDLE     28620500                       # Time in different power states
system.mem_ctrls_1.memoryStateTime::REF      89810000                       # Time in different power states
system.mem_ctrls_1.memoryStateTime::SREF 103551573000                       # Time in different power states
system.mem_ctrls_1.memoryStateTime::PRE_PDN    825910000                       # Time in different power states
system.mem_ctrls_1.memoryStateTime::ACT      31950203                       # Time in different power states
system.mem_ctrls_1.memoryStateTime::ACT_PDN    935847297                       # Time in different power states
system.pwrStateResidencyTicks::UNDEFINED 105463711000                       # Cumulative time (in ticks) in various power states
system.cpu.branchPred.lookups                53500720                       # Number of BP lookups
system.cpu.branchPred.condPredicted          46196342                       # Number of conditional branches predicted
system.cpu.branchPred.condIncorrect            795982                       # Number of conditional branches incorrect
system.cpu.branchPred.BTBLookups             39942685                       # Number of BTB lookups
system.cpu.branchPred.BTBHits                39252458                       # Number of BTB hits
system.cpu.branchPred.BTBCorrect                    0                       # Number of correct BTB predictions (this stat may not work properly.
system.cpu.branchPred.BTBHitPct             98.271956                       # BTB Hit Percentage
system.cpu.branchPred.usedRAS                 3217899                       # Number of times the RAS was used to get a target.
system.cpu.branchPred.RASInCorrect              78001                       # Number of incorrect RAS predictions.
system.cpu.branchPred.indirectLookups          244565                       # Number of indirect predictor lookups.
system.cpu.branchPred.indirectHits             243844                       # Number of indirect target hits.
system.cpu.branchPred.indirectMisses              721                       # Number of indirect misses.
system.cpu.branchPredindirectMispredicted          617                       # Number of mispredicted indirect branches.
system.cpu_voltage_domain.voltage                   1                       # Voltage in Volts
system.cpu_clk_domain.clock                       500                       # Clock period in ticks
system.cpu.dstage2_mmu.stage2_tlb.walker.pwrStateResidencyTicks::UNDEFINED 105463711000                       # Cumulative time (in ticks) in various power states
system.cpu.dstage2_mmu.stage2_tlb.walker.walks            0                       # Table walker walks requested
system.cpu.dstage2_mmu.stage2_tlb.walker.walkRequestOrigin_Requested::Data            0                       # Table walker requests started/completed, data/inst
system.cpu.dstage2_mmu.stage2_tlb.walker.walkRequestOrigin_Requested::Inst            0                       # Table walker requests started/completed, data/inst
system.cpu.dstage2_mmu.stage2_tlb.walker.walkRequestOrigin_Requested::total            0                       # Table walker requests started/completed, data/inst
system.cpu.dstage2_mmu.stage2_tlb.walker.walkRequestOrigin_Completed::Data            0                       # Table walker requests started/completed, data/inst
system.cpu.dstage2_mmu.stage2_tlb.walker.walkRequestOrigin_Completed::Inst            0                       # Table walker requests started/completed, data/inst
system.cpu.dstage2_mmu.stage2_tlb.walker.walkRequestOrigin_Completed::total            0                       # Table walker requests started/completed, data/inst
system.cpu.dstage2_mmu.stage2_tlb.walker.walkRequestOrigin::total            0                       # Table walker requests started/completed, data/inst
system.cpu.dstage2_mmu.stage2_tlb.inst_hits            0                       # ITB inst hits
system.cpu.dstage2_mmu.stage2_tlb.inst_misses            0                       # ITB inst misses
system.cpu.dstage2_mmu.stage2_tlb.read_hits            0                       # DTB read hits
system.cpu.dstage2_mmu.stage2_tlb.read_misses            0                       # DTB read misses
system.cpu.dstage2_mmu.stage2_tlb.write_hits            0                       # DTB write hits
system.cpu.dstage2_mmu.stage2_tlb.write_misses            0                       # DTB write misses
system.cpu.dstage2_mmu.stage2_tlb.flush_tlb            0                       # Number of times complete TLB was flushed
system.cpu.dstage2_mmu.stage2_tlb.flush_tlb_mva            0                       # Number of times TLB was flushed by MVA
system.cpu.dstage2_mmu.stage2_tlb.flush_tlb_mva_asid            0                       # Number of times TLB was flushed by MVA & ASID
system.cpu.dstage2_mmu.stage2_tlb.flush_tlb_asid            0                       # Number of times TLB was flushed by ASID
system.cpu.dstage2_mmu.stage2_tlb.flush_entries            0                       # Number of entries that have been flushed from TLB
system.cpu.dstage2_mmu.stage2_tlb.align_faults            0                       # Number of TLB faults due to alignment restrictions
system.cpu.dstage2_mmu.stage2_tlb.prefetch_faults            0                       # Number of TLB faults due to prefetch
system.cpu.dstage2_mmu.stage2_tlb.domain_faults            0                       # Number of TLB faults due to domain restrictions
system.cpu.dstage2_mmu.stage2_tlb.perms_faults            0                       # Number of TLB faults due to permissions restrictions
system.cpu.dstage2_mmu.stage2_tlb.read_accesses            0                       # DTB read accesses
system.cpu.dstage2_mmu.stage2_tlb.write_accesses            0                       # DTB write accesses
system.cpu.dstage2_mmu.stage2_tlb.inst_accesses            0                       # ITB inst accesses
system.cpu.dstage2_mmu.stage2_tlb.hits              0                       # DTB hits
system.cpu.dstage2_mmu.stage2_tlb.misses            0                       # DTB misses
system.cpu.dstage2_mmu.stage2_tlb.accesses            0                       # DTB accesses
system.cpu.dtb.walker.pwrStateResidencyTicks::UNDEFINED 105463711000                       # Cumulative time (in ticks) in various power states
system.cpu.dtb.walker.walks                         0                       # Table walker walks requested
system.cpu.dtb.walker.walkRequestOrigin_Requested::Data            0                       # Table walker requests started/completed, data/inst
system.cpu.dtb.walker.walkRequestOrigin_Requested::Inst            0                       # Table walker requests started/completed, data/inst
system.cpu.dtb.walker.walkRequestOrigin_Requested::total            0                       # Table walker requests started/completed, data/inst
system.cpu.dtb.walker.walkRequestOrigin_Completed::Data            0                       # Table walker requests started/completed, data/inst
system.cpu.dtb.walker.walkRequestOrigin_Completed::Inst            0                       # Table walker requests started/completed, data/inst
system.cpu.dtb.walker.walkRequestOrigin_Completed::total            0                       # Table walker requests started/completed, data/inst
system.cpu.dtb.walker.walkRequestOrigin::total            0                       # Table walker requests started/completed, data/inst
system.cpu.dtb.inst_hits                            0                       # ITB inst hits
system.cpu.dtb.inst_misses                          0                       # ITB inst misses
system.cpu.dtb.read_hits                            0                       # DTB read hits
system.cpu.dtb.read_misses                          0                       # DTB read misses
system.cpu.dtb.write_hits                           0                       # DTB write hits
system.cpu.dtb.write_misses                         0                       # DTB write misses
system.cpu.dtb.flush_tlb                            0                       # Number of times complete TLB was flushed
system.cpu.dtb.flush_tlb_mva                        0                       # Number of times TLB was flushed by MVA
system.cpu.dtb.flush_tlb_mva_asid                   0                       # Number of times TLB was flushed by MVA & ASID
system.cpu.dtb.flush_tlb_asid                       0                       # Number of times TLB was flushed by ASID
system.cpu.dtb.flush_entries                        0                       # Number of entries that have been flushed from TLB
system.cpu.dtb.align_faults                         0                       # Number of TLB faults due to alignment restrictions
system.cpu.dtb.prefetch_faults                      0                       # Number of TLB faults due to prefetch
system.cpu.dtb.domain_faults                        0                       # Number of TLB faults due to domain restrictions
system.cpu.dtb.perms_faults                         0                       # Number of TLB faults due to permissions restrictions
system.cpu.dtb.read_accesses                        0                       # DTB read accesses
system.cpu.dtb.write_accesses                       0                       # DTB write accesses
system.cpu.dtb.inst_accesses                        0                       # ITB inst accesses
system.cpu.dtb.hits                                 0                       # DTB hits
system.cpu.dtb.misses                               0                       # DTB misses
system.cpu.dtb.accesses                             0                       # DTB accesses
system.cpu.istage2_mmu.stage2_tlb.walker.pwrStateResidencyTicks::UNDEFINED 105463711000                       # Cumulative time (in ticks) in various power states
system.cpu.istage2_mmu.stage2_tlb.walker.walks            0                       # Table walker walks requested
system.cpu.istage2_mmu.stage2_tlb.walker.walkRequestOrigin_Requested::Data            0                       # Table walker requests started/completed, data/inst
system.cpu.istage2_mmu.stage2_tlb.walker.walkRequestOrigin_Requested::Inst            0                       # Table walker requests started/completed, data/inst
system.cpu.istage2_mmu.stage2_tlb.walker.walkRequestOrigin_Requested::total            0                       # Table walker requests started/completed, data/inst
system.cpu.istage2_mmu.stage2_tlb.walker.walkRequestOrigin_Completed::Data            0                       # Table walker requests started/completed, data/inst
system.cpu.istage2_mmu.stage2_tlb.walker.walkRequestOrigin_Completed::Inst            0                       # Table walker requests started/completed, data/inst
system.cpu.istage2_mmu.stage2_tlb.walker.walkRequestOrigin_Completed::total            0                       # Table walker requests started/completed, data/inst
system.cpu.istage2_mmu.stage2_tlb.walker.walkRequestOrigin::total            0                       # Table walker requests started/completed, data/inst
system.cpu.istage2_mmu.stage2_tlb.inst_hits            0                       # ITB inst hits
system.cpu.istage2_mmu.stage2_tlb.inst_misses            0                       # ITB inst misses
system.cpu.istage2_mmu.stage2_tlb.read_hits            0                       # DTB read hits
system.cpu.istage2_mmu.stage2_tlb.read_misses            0                       # DTB read misses
system.cpu.istage2_mmu.stage2_tlb.write_hits            0                       # DTB write hits
system.cpu.istage2_mmu.stage2_tlb.write_misses            0                       # DTB write misses
system.cpu.istage2_mmu.stage2_tlb.flush_tlb            0                       # Number of times complete TLB was flushed
system.cpu.istage2_mmu.stage2_tlb.flush_tlb_mva            0                       # Number of times TLB was flushed by MVA
system.cpu.istage2_mmu.stage2_tlb.flush_tlb_mva_asid            0                       # Number of times TLB was flushed by MVA & ASID
system.cpu.istage2_mmu.stage2_tlb.flush_tlb_asid            0                       # Number of times TLB was flushed by ASID
system.cpu.istage2_mmu.stage2_tlb.flush_entries            0                       # Number of entries that have been flushed from TLB
system.cpu.istage2_mmu.stage2_tlb.align_faults            0                       # Number of TLB faults due to alignment restrictions
system.cpu.istage2_mmu.stage2_tlb.prefetch_faults            0                       # Number of TLB faults due to prefetch
system.cpu.istage2_mmu.stage2_tlb.domain_faults            0                       # Number of TLB faults due to domain restrictions
system.cpu.istage2_mmu.stage2_tlb.perms_faults            0                       # Number of TLB faults due to permissions restrictions
system.cpu.istage2_mmu.stage2_tlb.read_accesses            0                       # DTB read accesses
system.cpu.istage2_mmu.stage2_tlb.write_accesses            0                       # DTB write accesses
system.cpu.istage2_mmu.stage2_tlb.inst_accesses            0                       # ITB inst accesses
system.cpu.istage2_mmu.stage2_tlb.hits              0                       # DTB hits
system.cpu.istage2_mmu.stage2_tlb.misses            0                       # DTB misses
system.cpu.istage2_mmu.stage2_tlb.accesses            0                       # DTB accesses
system.cpu.itb.walker.pwrStateResidencyTicks::UNDEFINED 105463711000                       # Cumulative time (in ticks) in various power states
system.cpu.itb.walker.walks                         0                       # Table walker walks requested
system.cpu.itb.walker.walkRequestOrigin_Requested::Data            0                       # Table walker requests started/completed, data/inst
system.cpu.itb.walker.walkRequestOrigin_Requested::Inst            0                       # Table walker requests started/completed, data/inst
system.cpu.itb.walker.walkRequestOrigin_Requested::total            0                       # Table walker requests started/completed, data/inst
system.cpu.itb.walker.walkRequestOrigin_Completed::Data            0                       # Table walker requests started/completed, data/inst
system.cpu.itb.walker.walkRequestOrigin_Completed::Inst            0                       # Table walker requests started/completed, data/inst
system.cpu.itb.walker.walkRequestOrigin_Completed::total            0                       # Table walker requests started/completed, data/inst
system.cpu.itb.walker.walkRequestOrigin::total            0                       # Table walker requests started/completed, data/inst
system.cpu.itb.inst_hits                            0                       # ITB inst hits
system.cpu.itb.inst_misses                          0                       # ITB inst misses
system.cpu.itb.read_hits                            0                       # DTB read hits
system.cpu.itb.read_misses                          0                       # DTB read misses
system.cpu.itb.write_hits                           0                       # DTB write hits
system.cpu.itb.write_misses                         0                       # DTB write misses
system.cpu.itb.flush_tlb                            0                       # Number of times complete TLB was flushed
system.cpu.itb.flush_tlb_mva                        0                       # Number of times TLB was flushed by MVA
system.cpu.itb.flush_tlb_mva_asid                   0                       # Number of times TLB was flushed by MVA & ASID
system.cpu.itb.flush_tlb_asid                       0                       # Number of times TLB was flushed by ASID
system.cpu.itb.flush_entries                        0                       # Number of entries that have been flushed from TLB
system.cpu.itb.align_faults                         0                       # Number of TLB faults due to alignment restrictions
system.cpu.itb.prefetch_faults                      0                       # Number of TLB faults due to prefetch
system.cpu.itb.domain_faults                        0                       # Number of TLB faults due to domain restrictions
system.cpu.itb.perms_faults                         0                       # Number of TLB faults due to permissions restrictions
system.cpu.itb.read_accesses                        0                       # DTB read accesses
system.cpu.itb.write_accesses                       0                       # DTB write accesses
system.cpu.itb.inst_accesses                        0                       # ITB inst accesses
system.cpu.itb.hits                                 0                       # DTB hits
system.cpu.itb.misses                               0                       # DTB misses
system.cpu.itb.accesses                             0                       # DTB accesses
system.cpu.workload.numSyscalls                    16                       # Number of system calls
system.cpu.pwrStateResidencyTicks::ON    105463711000                       # Cumulative time (in ticks) in various power states
system.cpu.numCycles                        210927423                       # number of cpu cycles simulated
system.cpu.numWorkItemsStarted                      0                       # number of work items this cpu started
system.cpu.numWorkItemsCompleted                    0                       # number of work items this cpu completed
system.cpu.fetch.icacheStallCycles             864247                       # Number of cycles fetch is stalled on an Icache miss
system.cpu.fetch.Insts                      430854724                       # Number of instructions fetch has processed
system.cpu.fetch.Branches                    53500720                       # Number of branches that fetch encountered
system.cpu.fetch.predictedBranches           42714201                       # Number of branches that fetch has predicted taken
system.cpu.fetch.Cycles                     209069174                       # Number of cycles fetch has run and was not squashing or blocked
system.cpu.fetch.SquashCycles                 1655566                       # Number of cycles fetch has spent squashing
system.cpu.fetch.MiscStallCycles                  859                       # Number of cycles fetch has spent waiting on interrupts, or bad addresses, or out of MSHRs
system.cpu.fetch.PendingTrapStallCycles           293                       # Number of stall cycles due to pending traps
system.cpu.fetch.IcacheWaitRetryStallCycles         1617                       # Number of stall cycles due to full MSHR
system.cpu.fetch.CacheLines                 127728991                       # Number of cache lines fetched
system.cpu.fetch.IcacheSquashes                  1766                       # Number of outstanding Icache misses that were squashed
system.cpu.fetch.rateDist::samples          210763973                       # Number of instructions fetched each cycle (Total)
system.cpu.fetch.rateDist::mean              2.140196                       # Number of instructions fetched each cycle (Total)
system.cpu.fetch.rateDist::stdev             1.013912                       # Number of instructions fetched each cycle (Total)
system.cpu.fetch.rateDist::underflows               0      0.00%      0.00% # Number of instructions fetched each cycle (Total)
system.cpu.fetch.rateDist::0                  6482451      3.08%      3.08% # Number of instructions fetched each cycle (Total)
system.cpu.fetch.rateDist::1                 76184247     36.15%     39.22% # Number of instructions fetched each cycle (Total)
system.cpu.fetch.rateDist::2                  9399838      4.46%     43.68% # Number of instructions fetched each cycle (Total)
system.cpu.fetch.rateDist::3                118697437     56.32%    100.00% # Number of instructions fetched each cycle (Total)
system.cpu.fetch.rateDist::overflows                0      0.00%    100.00% # Number of instructions fetched each cycle (Total)
system.cpu.fetch.rateDist::min_value                0                       # Number of instructions fetched each cycle (Total)
system.cpu.fetch.rateDist::max_value                3                       # Number of instructions fetched each cycle (Total)
system.cpu.fetch.rateDist::total            210763973                       # Number of instructions fetched each cycle (Total)
system.cpu.fetch.branchRate                  0.253645                       # Number of branch fetches per cycle
system.cpu.fetch.rate                        2.042668                       # Number of inst fetches per cycle
system.cpu.decode.IdleCycles                  7292469                       # Number of cycles decode is idle
system.cpu.decode.BlockedCycles              12571300                       # Number of cycles decode is blocked
system.cpu.decode.RunCycles                 182604435                       # Number of cycles decode is running
system.cpu.decode.UnblockCycles               7531002                       # Number of cycles decode is unblocking
system.cpu.decode.SquashCycles                 764767                       # Number of cycles decode is squashing
system.cpu.decode.BranchResolved             38807362                       # Number of times decode resolved a branch
system.cpu.decode.BranchMispred                 63190                       # Number of times decode detected a branch misprediction
system.cpu.decode.DecodedInsts              440748159                       # Number of instructions handled by decode
system.cpu.decode.SquashedInsts               3751222                       # Number of squashed instructions handled by decode
system.cpu.rename.SquashCycles                 764767                       # Number of cycles rename is squashing
system.cpu.rename.IdleCycles                 13712897                       # Number of cycles rename is idle
system.cpu.rename.BlockCycles                 2015621                       # Number of cycles rename is blocking
system.cpu.rename.serializeStallCycles        2401955                       # count of cycles rename stalled for serializing inst
system.cpu.rename.RunCycles                 183563715                       # Number of cycles rename is running
system.cpu.rename.UnblockCycles               8305018                       # Number of cycles rename is unblocking
system.cpu.rename.RenamedInsts              437413182                       # Number of instructions processed by rename
system.cpu.rename.SquashedInsts               1647620                       # Number of squashed instructions processed by rename
system.cpu.rename.ROBFullEvents               2288603                       # Number of times rename has blocked due to ROB full
system.cpu.rename.IQFullEvents                2562865                       # Number of times rename has blocked due to IQ full
system.cpu.rename.LQFullEvents                    672                       # Number of times rename has blocked due to LQ full
system.cpu.rename.SQFullEvents                  41198                       # Number of times rename has blocked due to SQ full
system.cpu.rename.RenamedOperands           604605232                       # Number of destination operands rename has renamed
system.cpu.rename.RenameLookups            2190938918                       # Number of register rename lookups that rename has made
system.cpu.rename.int_rename_lookups        732884039                       # Number of integer rename lookups
system.cpu.rename.fp_rename_lookups                16                       # Number of floating rename lookups
system.cpu.rename.CommittedMaps             576947938                       # Number of HB maps that are committed
system.cpu.rename.UndoneMaps                 27657293                       # Number of HB maps that are undone due to squashing
system.cpu.rename.serializingInsts             155355                       # count of serializing insts renamed
system.cpu.rename.tempSerializingInsts          31587                       # count of temporary serializing insts renamed
system.cpu.rename.skidInsts                  14479712                       # count of insts added to the skid buffer
system.cpu.memDep0.insertedLoads             38391514                       # Number of loads inserted to the mem dependence unit.
system.cpu.memDep0.insertedStores            38678439                       # Number of stores inserted to the mem dependence unit.
system.cpu.memDep0.conflictingLoads            531653                       # Number of conflicting loads.
system.cpu.memDep0.conflictingStores           498485                       # Number of conflicting stores.
system.cpu.iq.iqInstsAdded                  435926958                       # Number of instructions added to the IQ (excludes non-spec)
system.cpu.iq.iqNonSpecInstsAdded               32171                       # Number of non-speculative instructions added to the IQ
system.cpu.iq.iqInstsIssued                 424900512                       # Number of instructions issued
system.cpu.iq.iqSquashedInstsIssued           1530678                       # Number of squashed instructions issued
system.cpu.iq.iqSquashedInstsExamined        16899615                       # Number of squashed instructions iterated over during squash; mainly for profiling
system.cpu.iq.iqSquashedOperandsExamined     58367111                       # Number of squashed operands that are examined and possibly removed from graph
system.cpu.iq.iqSquashedNonSpecRemoved             63                       # Number of squashed non-spec instructions that were removed
system.cpu.iq.issued_per_cycle::samples     210763973                       # Number of insts issued each cycle
system.cpu.iq.issued_per_cycle::mean         2.016002                       # Number of insts issued each cycle
system.cpu.iq.issued_per_cycle::stdev        0.794762                       # Number of insts issued each cycle
system.cpu.iq.issued_per_cycle::underflows            0      0.00%      0.00% # Number of insts issued each cycle
system.cpu.iq.issued_per_cycle::0            11826689      5.61%      5.61% # Number of insts issued each cycle
system.cpu.iq.issued_per_cycle::1            28045074     13.31%     18.92% # Number of insts issued each cycle
system.cpu.iq.issued_per_cycle::2           117200984     55.61%     74.53% # Number of insts issued each cycle
system.cpu.iq.issued_per_cycle::3            52311441     24.82%     99.35% # Number of insts issued each cycle
system.cpu.iq.issued_per_cycle::4             1379778      0.65%    100.00% # Number of insts issued each cycle
system.cpu.iq.issued_per_cycle::5                   7      0.00%    100.00% # Number of insts issued each cycle
system.cpu.iq.issued_per_cycle::6                   0      0.00%    100.00% # Number of insts issued each cycle
system.cpu.iq.issued_per_cycle::7                   0      0.00%    100.00% # Number of insts issued each cycle
system.cpu.iq.issued_per_cycle::8                   0      0.00%    100.00% # Number of insts issued each cycle
system.cpu.iq.issued_per_cycle::overflows            0      0.00%    100.00% # Number of insts issued each cycle
system.cpu.iq.issued_per_cycle::min_value            0                       # Number of insts issued each cycle
system.cpu.iq.issued_per_cycle::max_value            5                       # Number of insts issued each cycle
system.cpu.iq.issued_per_cycle::total       210763973                       # Number of insts issued each cycle
system.cpu.iq.fu_full::No_OpClass                   0      0.00%      0.00% # attempts to use FU when none available
system.cpu.iq.fu_full::IntAlu                74765644     86.57%     86.57% # attempts to use FU when none available
system.cpu.iq.fu_full::IntMult                     21      0.00%     86.57% # attempts to use FU when none available
system.cpu.iq.fu_full::IntDiv                       0      0.00%     86.57% # attempts to use FU when none available
system.cpu.iq.fu_full::FloatAdd                     0      0.00%     86.57% # attempts to use FU when none available
system.cpu.iq.fu_full::FloatCmp                     0      0.00%     86.57% # attempts to use FU when none available
system.cpu.iq.fu_full::FloatCvt                     0      0.00%     86.57% # attempts to use FU when none available
system.cpu.iq.fu_full::FloatMult                    0      0.00%     86.57% # attempts to use FU when none available
system.cpu.iq.fu_full::FloatMultAcc                 0      0.00%     86.57% # attempts to use FU when none available
system.cpu.iq.fu_full::FloatDiv                     0      0.00%     86.57% # attempts to use FU when none available
system.cpu.iq.fu_full::FloatMisc                    0      0.00%     86.57% # attempts to use FU when none available
system.cpu.iq.fu_full::FloatSqrt                    0      0.00%     86.57% # attempts to use FU when none available
system.cpu.iq.fu_full::SimdAdd                      0      0.00%     86.57% # attempts to use FU when none available
system.cpu.iq.fu_full::SimdAddAcc                   0      0.00%     86.57% # attempts to use FU when none available
system.cpu.iq.fu_full::SimdAlu                      0      0.00%     86.57% # attempts to use FU when none available
system.cpu.iq.fu_full::SimdCmp                      0      0.00%     86.57% # attempts to use FU when none available
system.cpu.iq.fu_full::SimdCvt                      0      0.00%     86.57% # attempts to use FU when none available
system.cpu.iq.fu_full::SimdMisc                     0      0.00%     86.57% # attempts to use FU when none available
system.cpu.iq.fu_full::SimdMult                     0      0.00%     86.57% # attempts to use FU when none available
system.cpu.iq.fu_full::SimdMultAcc                  0      0.00%     86.57% # attempts to use FU when none available
system.cpu.iq.fu_full::SimdShift                    0      0.00%     86.57% # attempts to use FU when none available
system.cpu.iq.fu_full::SimdShiftAcc                 0      0.00%     86.57% # attempts to use FU when none available
system.cpu.iq.fu_full::SimdSqrt                     0      0.00%     86.57% # attempts to use FU when none available
system.cpu.iq.fu_full::SimdFloatAdd                 0      0.00%     86.57% # attempts to use FU when none available
system.cpu.iq.fu_full::SimdFloatAlu                 0      0.00%     86.57% # attempts to use FU when none available
system.cpu.iq.fu_full::SimdFloatCmp                 0      0.00%     86.57% # attempts to use FU when none available
system.cpu.iq.fu_full::SimdFloatCvt                 0      0.00%     86.57% # attempts to use FU when none available
system.cpu.iq.fu_full::SimdFloatDiv                 0      0.00%     86.57% # attempts to use FU when none available
system.cpu.iq.fu_full::SimdFloatMisc                0      0.00%     86.57% # attempts to use FU when none available
system.cpu.iq.fu_full::SimdFloatMult                0      0.00%     86.57% # attempts to use FU when none available
system.cpu.iq.fu_full::SimdFloatMultAcc             0      0.00%     86.57% # attempts to use FU when none available
system.cpu.iq.fu_full::SimdFloatSqrt                0      0.00%     86.57% # attempts to use FU when none available
system.cpu.iq.fu_full::MemRead                5763554      6.67%     93.25% # attempts to use FU when none available
system.cpu.iq.fu_full::MemWrite               5833374      6.75%    100.00% # attempts to use FU when none available
system.cpu.iq.fu_full::FloatMemRead                 0      0.00%    100.00% # attempts to use FU when none available
system.cpu.iq.fu_full::FloatMemWrite               14      0.00%    100.00% # attempts to use FU when none available
system.cpu.iq.fu_full::IprAccess                    0      0.00%    100.00% # attempts to use FU when none available
system.cpu.iq.fu_full::InstPrefetch                 0      0.00%    100.00% # attempts to use FU when none available
system.cpu.iq.FU_type_0::No_OpClass                10      0.00%      0.00% # Type of FU issued
system.cpu.iq.FU_type_0::IntAlu             346336517     81.51%     81.51% # Type of FU issued
system.cpu.iq.FU_type_0::IntMult              1602928      0.38%     81.89% # Type of FU issued
system.cpu.iq.FU_type_0::IntDiv                     0      0.00%     81.89% # Type of FU issued
system.cpu.iq.FU_type_0::FloatAdd                   0      0.00%     81.89% # Type of FU issued
system.cpu.iq.FU_type_0::FloatCmp                   0      0.00%     81.89% # Type of FU issued
system.cpu.iq.FU_type_0::FloatCvt                   0      0.00%     81.89% # Type of FU issued
system.cpu.iq.FU_type_0::FloatMult                  0      0.00%     81.89% # Type of FU issued
system.cpu.iq.FU_type_0::FloatMultAcc               0      0.00%     81.89% # Type of FU issued
system.cpu.iq.FU_type_0::FloatDiv                   0      0.00%     81.89% # Type of FU issued
system.cpu.iq.FU_type_0::FloatMisc                  0      0.00%     81.89% # Type of FU issued
system.cpu.iq.FU_type_0::FloatSqrt                  0      0.00%     81.89% # Type of FU issued
system.cpu.iq.FU_type_0::SimdAdd                    0      0.00%     81.89% # Type of FU issued
system.cpu.iq.FU_type_0::SimdAddAcc                 0      0.00%     81.89% # Type of FU issued
system.cpu.iq.FU_type_0::SimdAlu                    0      0.00%     81.89% # Type of FU issued
system.cpu.iq.FU_type_0::SimdCmp                    0      0.00%     81.89% # Type of FU issued
system.cpu.iq.FU_type_0::SimdCvt                    0      0.00%     81.89% # Type of FU issued
system.cpu.iq.FU_type_0::SimdMisc                   0      0.00%     81.89% # Type of FU issued
system.cpu.iq.FU_type_0::SimdMult                   0      0.00%     81.89% # Type of FU issued
system.cpu.iq.FU_type_0::SimdMultAcc                0      0.00%     81.89% # Type of FU issued
system.cpu.iq.FU_type_0::SimdShift                  0      0.00%     81.89% # Type of FU issued
system.cpu.iq.FU_type_0::SimdShiftAcc               0      0.00%     81.89% # Type of FU issued
system.cpu.iq.FU_type_0::SimdSqrt                   0      0.00%     81.89% # Type of FU issued
system.cpu.iq.FU_type_0::SimdFloatAdd               0      0.00%     81.89% # Type of FU issued
system.cpu.iq.FU_type_0::SimdFloatAlu               0      0.00%     81.89% # Type of FU issued
system.cpu.iq.FU_type_0::SimdFloatCmp               0      0.00%     81.89% # Type of FU issued
system.cpu.iq.FU_type_0::SimdFloatCvt               0      0.00%     81.89% # Type of FU issued
system.cpu.iq.FU_type_0::SimdFloatDiv               0      0.00%     81.89% # Type of FU issued
system.cpu.iq.FU_type_0::SimdFloatMisc         154681      0.04%     81.92% # Type of FU issued
system.cpu.iq.FU_type_0::SimdFloatMult              0      0.00%     81.92% # Type of FU issued
system.cpu.iq.FU_type_0::SimdFloatMultAcc            0      0.00%     81.92% # Type of FU issued
system.cpu.iq.FU_type_0::SimdFloatSqrt              0      0.00%     81.92% # Type of FU issued
system.cpu.iq.FU_type_0::MemRead             38814969      9.14%     91.06% # Type of FU issued
system.cpu.iq.FU_type_0::MemWrite            37991391      8.94%    100.00% # Type of FU issued
system.cpu.iq.FU_type_0::FloatMemRead               0      0.00%    100.00% # Type of FU issued
system.cpu.iq.FU_type_0::FloatMemWrite             16      0.00%    100.00% # Type of FU issued
system.cpu.iq.FU_type_0::IprAccess                  0      0.00%    100.00% # Type of FU issued
system.cpu.iq.FU_type_0::InstPrefetch               0      0.00%    100.00% # Type of FU issued
system.cpu.iq.FU_type_0::total              424900512                       # Type of FU issued
system.cpu.iq.rate                           2.014439                       # Inst issue rate
system.cpu.iq.fu_busy_cnt                    86362607                       # FU busy when requested
system.cpu.iq.fu_busy_rate                   0.203254                       # FU busy rate (busy events/executed inst)
system.cpu.iq.int_inst_queue_reads         1148458236                       # Number of integer instruction queue reads
system.cpu.iq.int_inst_queue_writes         452859624                       # Number of integer instruction queue writes
system.cpu.iq.int_inst_queue_wakeup_accesses    423178413                       # Number of integer instruction queue wakeup accesses
system.cpu.iq.fp_inst_queue_reads                  46                       # Number of floating instruction queue reads
system.cpu.iq.fp_inst_queue_writes                 16                       # Number of floating instruction queue writes
system.cpu.iq.fp_inst_queue_wakeup_accesses           16                       # Number of floating instruction queue wakeup accesses
system.cpu.iq.vec_inst_queue_reads                  0                       # Number of vector instruction queue reads
system.cpu.iq.vec_inst_queue_writes                 0                       # Number of vector instruction queue writes
system.cpu.iq.vec_inst_queue_wakeup_accesses            0                       # Number of vector instruction queue wakeup accesses
system.cpu.iq.int_alu_accesses              511263079                       # Number of integer alu accesses
system.cpu.iq.fp_alu_accesses                      30                       # Number of floating point alu accesses
system.cpu.iq.vec_alu_accesses                      0                       # Number of vector alu accesses
system.cpu.iew.lsq.thread0.forwLoads           405331                       # Number of loads that had data forwarded from stores
system.cpu.iew.lsq.thread0.invAddrLoads             0                       # Number of loads ignored due to an invalid address
system.cpu.iew.lsq.thread0.squashedLoads      1202805                       # Number of loads squashed
system.cpu.iew.lsq.thread0.ignoredResponses          184                       # Number of memory responses ignored because the instruction is squashed
system.cpu.iew.lsq.thread0.memOrderViolation          897                       # Number of memory ordering violations
system.cpu.iew.lsq.thread0.squashedStores       976298                       # Number of stores squashed
system.cpu.iew.lsq.thread0.invAddrSwpfs             0                       # Number of software prefetches ignored due to an invalid address
system.cpu.iew.lsq.thread0.blockedLoads             0                       # Number of blocked loads due to partial load-store forwarding
system.cpu.iew.lsq.thread0.rescheduledLoads       847518                       # Number of loads that were rescheduled
system.cpu.iew.lsq.thread0.cacheBlocked          2058                       # Number of times an access to memory failed due to the cache being blocked
system.cpu.iew.iewIdleCycles                        0                       # Number of cycles IEW is idle
system.cpu.iew.iewSquashCycles                 764767                       # Number of cycles IEW is squashing
system.cpu.iew.iewBlockCycles                 1524754                       # Number of cycles IEW is blocking
system.cpu.iew.iewUnblockCycles                   520                       # Number of cycles IEW is unblocking
system.cpu.iew.iewDispatchedInsts           435959139                       # Number of instructions dispatched to IQ
system.cpu.iew.iewDispSquashedInsts                 0                       # Number of squashed instructions skipped by dispatch
system.cpu.iew.iewDispLoadInsts              38391514                       # Number of dispatched load instructions
system.cpu.iew.iewDispStoreInsts             38678439                       # Number of dispatched store instructions
system.cpu.iew.iewDispNonSpecInsts              31587                       # Number of dispatched non-speculative instructions
system.cpu.iew.iewIQFullEvents                     60                       # Number of times the IQ has become full, causing a stall
system.cpu.iew.iewLSQFullEvents                   346                       # Number of times the LSQ has become full, causing a stall
system.cpu.iew.memOrderViolationEvents            897                       # Number of memory order violations
system.cpu.iew.predictedTakenIncorrect         340579                       # Number of branches that were predicted taken incorrectly
system.cpu.iew.predictedNotTakenIncorrect       413464                       # Number of branches that were predicted not taken incorrectly
system.cpu.iew.branchMispredicts               754043                       # Number of branch mispredicts detected at execute
system.cpu.iew.iewExecutedInsts             424208808                       # Number of executed instructions
system.cpu.iew.iewExecLoadInsts              38537665                       # Number of load instructions executed
system.cpu.iew.iewExecSquashedInsts            691704                       # Number of squashed instructions skipped in execute
system.cpu.iew.exec_swp                             0                       # number of swp insts executed
system.cpu.iew.exec_nop                            10                       # number of nop insts executed
system.cpu.iew.exec_refs                     76415806                       # number of memory reference insts executed
system.cpu.iew.exec_branches                 49482720                       # Number of branches executed
system.cpu.iew.exec_stores                   37878141                       # Number of stores executed
system.cpu.iew.exec_rate                     2.011160                       # Inst execution rate
system.cpu.iew.wb_sent                      423225478                       # cumulative count of insts sent to commit
system.cpu.iew.wb_count                     423178429                       # cumulative count of insts written-back
system.cpu.iew.wb_producers                 319153255                       # num instructions producing a value
system.cpu.iew.wb_consumers                 790885919                       # num instructions consuming a value
system.cpu.iew.wb_rate                       2.006275                       # insts written-back per cycle
system.cpu.iew.wb_fanout                     0.403539                       # average fanout of values written-back
system.cpu.commit.commitSquashedInsts        15322243                       # The number of squashed insts skipped by commit
system.cpu.commit.commitNonSpecStalls           32108                       # The number of times commit has been forced to stall to communicate backwards
system.cpu.commit.branchMispredicts            732972                       # The number of times a branch was mispredicted
system.cpu.commit.committed_per_cycle::samples    208480225                       # Number of insts commited each cycle
system.cpu.commit.committed_per_cycle::mean     2.010068                       # Number of insts commited each cycle
system.cpu.commit.committed_per_cycle::stdev     2.051280                       # Number of insts commited each cycle
system.cpu.commit.committed_per_cycle::underflows            0      0.00%      0.00% # Number of insts commited each cycle
system.cpu.commit.committed_per_cycle::0     43242802     20.74%     20.74% # Number of insts commited each cycle
system.cpu.commit.committed_per_cycle::1     59664359     28.62%     49.36% # Number of insts commited each cycle
system.cpu.commit.committed_per_cycle::2     61410631     29.46%     78.82% # Number of insts commited each cycle
system.cpu.commit.committed_per_cycle::3      8724323      4.18%     83.00% # Number of insts commited each cycle
system.cpu.commit.committed_per_cycle::4      5374493      2.58%     85.58% # Number of insts commited each cycle
system.cpu.commit.committed_per_cycle::5     16321749      7.83%     93.41% # Number of insts commited each cycle
system.cpu.commit.committed_per_cycle::6       920365      0.44%     93.85% # Number of insts commited each cycle
system.cpu.commit.committed_per_cycle::7       800008      0.38%     94.23% # Number of insts commited each cycle
system.cpu.commit.committed_per_cycle::8     12021495      5.77%    100.00% # Number of insts commited each cycle
system.cpu.commit.committed_per_cycle::overflows            0      0.00%    100.00% # Number of insts commited each cycle
system.cpu.commit.committed_per_cycle::min_value            0                       # Number of insts commited each cycle
system.cpu.commit.committed_per_cycle::max_value            8                       # Number of insts commited each cycle
system.cpu.commit.committed_per_cycle::total    208480225                       # Number of insts commited each cycle
system.cpu.commit.committedInsts            402752520                       # Number of instructions committed
system.cpu.commit.committedOps              419059513                       # Number of ops (including micro ops) committed
system.cpu.commit.swp_count                         0                       # Number of s/w prefetches committed
system.cpu.commit.refs                       74890850                       # Number of memory references committed
system.cpu.commit.loads                      37188709                       # Number of loads committed
system.cpu.commit.membars                         584                       # Number of memory barriers committed
system.cpu.commit.branches                   48961079                       # Number of branches committed
system.cpu.commit.vec_insts                         0                       # Number of committed Vector instructions.
system.cpu.commit.fp_insts                         16                       # Number of committed floating point instructions.
system.cpu.commit.int_insts                 376724794                       # Number of committed integer instructions.
system.cpu.commit.function_calls              3239999                       # Number of function calls committed.
system.cpu.commit.op_class_0::No_OpClass            0      0.00%      0.00% # Class of committed instruction
system.cpu.commit.op_class_0::IntAlu        342417093     81.71%     81.71% # Class of committed instruction
system.cpu.commit.op_class_0::IntMult         1596889      0.38%     82.09% # Class of committed instruction
system.cpu.commit.op_class_0::IntDiv                0      0.00%     82.09% # Class of committed instruction
system.cpu.commit.op_class_0::FloatAdd              0      0.00%     82.09% # Class of committed instruction
system.cpu.commit.op_class_0::FloatCmp              0      0.00%     82.09% # Class of committed instruction
system.cpu.commit.op_class_0::FloatCvt              0      0.00%     82.09% # Class of committed instruction
system.cpu.commit.op_class_0::FloatMult             0      0.00%     82.09% # Class of committed instruction
system.cpu.commit.op_class_0::FloatMultAcc            0      0.00%     82.09% # Class of committed instruction
system.cpu.commit.op_class_0::FloatDiv              0      0.00%     82.09% # Class of committed instruction
system.cpu.commit.op_class_0::FloatMisc             0      0.00%     82.09% # Class of committed instruction
system.cpu.commit.op_class_0::FloatSqrt             0      0.00%     82.09% # Class of committed instruction
system.cpu.commit.op_class_0::SimdAdd               0      0.00%     82.09% # Class of committed instruction
system.cpu.commit.op_class_0::SimdAddAcc            0      0.00%     82.09% # Class of committed instruction
system.cpu.commit.op_class_0::SimdAlu               0      0.00%     82.09% # Class of committed instruction
system.cpu.commit.op_class_0::SimdCmp               0      0.00%     82.09% # Class of committed instruction
system.cpu.commit.op_class_0::SimdCvt               0      0.00%     82.09% # Class of committed instruction
system.cpu.commit.op_class_0::SimdMisc              0      0.00%     82.09% # Class of committed instruction
system.cpu.commit.op_class_0::SimdMult              0      0.00%     82.09% # Class of committed instruction
system.cpu.commit.op_class_0::SimdMultAcc            0      0.00%     82.09% # Class of committed instruction
system.cpu.commit.op_class_0::SimdShift             0      0.00%     82.09% # Class of committed instruction
system.cpu.commit.op_class_0::SimdShiftAcc            0      0.00%     82.09% # Class of committed instruction
system.cpu.commit.op_class_0::SimdSqrt              0      0.00%     82.09% # Class of committed instruction
system.cpu.commit.op_class_0::SimdFloatAdd            0      0.00%     82.09% # Class of committed instruction
system.cpu.commit.op_class_0::SimdFloatAlu            0      0.00%     82.09% # Class of committed instruction
system.cpu.commit.op_class_0::SimdFloatCmp            0      0.00%     82.09% # Class of committed instruction
system.cpu.commit.op_class_0::SimdFloatCvt            0      0.00%     82.09% # Class of committed instruction
system.cpu.commit.op_class_0::SimdFloatDiv            0      0.00%     82.09% # Class of committed instruction
system.cpu.commit.op_class_0::SimdFloatMisc       154681      0.04%     82.13% # Class of committed instruction
[...]
system.l2.demand_miss_rate::cpu.data         0.077585                       # miss rate for demand accesses
system.l2.demand_miss_rate::total            0.137743                       # miss rate for demand accesses
system.l2.overall_miss_rate::cpu.inst        0.222932                       # miss rate for overall accesses
system.l2.overall_miss_rate::cpu.data        0.077585                       # miss rate for overall accesses
system.l2.overall_miss_rate::total           0.137743                       # miss rate for overall accesses
system.l2.ReadExReq_avg_miss_latency::cpu.data 113008.064516                       # average ReadExReq miss latency
system.l2.ReadExReq_avg_miss_latency::total 113008.064516                       # average ReadExReq miss latency
system.l2.ReadCleanReq_avg_miss_latency::cpu.inst 125456.541219                       # average ReadCleanReq miss latency
system.l2.ReadCleanReq_avg_miss_latency::total 125456.541219                       # average ReadCleanReq miss latency
system.l2.ReadSharedReq_avg_miss_latency::cpu.data 148659.624413                       # average ReadSharedReq miss latency
system.l2.ReadSharedReq_avg_miss_latency::total 148659.624413                       # average ReadSharedReq miss latency
system.l2.demand_avg_miss_latency::cpu.inst 125456.541219                       # average overall miss latency
system.l2.demand_avg_miss_latency::cpu.data 140621.818182                       # average overall miss latency
system.l2.demand_avg_miss_latency::total 130463.085234                       # average overall miss latency
system.l2.overall_avg_miss_latency::cpu.inst 125456.541219                       # average overall miss latency
system.l2.overall_avg_miss_latency::cpu.data 140621.818182                       # average overall miss latency
system.l2.overall_avg_miss_latency::total 130463.085234                       # average overall miss latency
system.l2.blocked_cycles::no_mshrs                  0                       # number of cycles access was blocked
system.l2.blocked_cycles::no_targets                0                       # number of cycles access was blocked
system.l2.blocked::no_mshrs                         0                       # number of cycles access was blocked
system.l2.blocked::no_targets                       0                       # number of cycles access was blocked
system.l2.avg_blocked_cycles::no_mshrs            nan                       # average number of cycles each access was blocked
system.l2.avg_blocked_cycles::no_targets          nan                       # average number of cycles each access was blocked
system.l2.ReadExReq_mshr_hits::cpu.data            29                       # number of ReadExReq MSHR hits
system.l2.ReadExReq_mshr_hits::total               29                       # number of ReadExReq MSHR hits
system.l2.ReadCleanReq_mshr_hits::cpu.inst            1                       # number of ReadCleanReq MSHR hits
system.l2.ReadCleanReq_mshr_hits::total             1                       # number of ReadCleanReq MSHR hits
system.l2.ReadSharedReq_mshr_hits::cpu.data            9                       # number of ReadSharedReq MSHR hits
system.l2.ReadSharedReq_mshr_hits::total            9                       # number of ReadSharedReq MSHR hits
system.l2.demand_mshr_hits::cpu.inst                1                       # number of demand (read+write) MSHR hits
system.l2.demand_mshr_hits::cpu.data               38                       # number of demand (read+write) MSHR hits
system.l2.demand_mshr_hits::total                  39                       # number of demand (read+write) MSHR hits
system.l2.overall_mshr_hits::cpu.inst               1                       # number of overall MSHR hits
system.l2.overall_mshr_hits::cpu.data              38                       # number of overall MSHR hits
system.l2.overall_mshr_hits::total                 39                       # number of overall MSHR hits
system.l2.HardPFReq_mshr_misses::l2.prefetcher         3599                       # number of HardPFReq MSHR misses
system.l2.HardPFReq_mshr_misses::total           3599                       # number of HardPFReq MSHR misses
system.l2.ReadExReq_mshr_misses::cpu.data           95                       # number of ReadExReq MSHR misses
system.l2.ReadExReq_mshr_misses::total             95                       # number of ReadExReq MSHR misses
system.l2.ReadCleanReq_mshr_misses::cpu.inst         1115                       # number of ReadCleanReq MSHR misses
system.l2.ReadCleanReq_mshr_misses::total         1115                       # number of ReadCleanReq MSHR misses
system.l2.ReadSharedReq_mshr_misses::cpu.data          417                       # number of ReadSharedReq MSHR misses
system.l2.ReadSharedReq_mshr_misses::total          417                       # number of ReadSharedReq MSHR misses
system.l2.demand_mshr_misses::cpu.inst           1115                       # number of demand (read+write) MSHR misses
system.l2.demand_mshr_misses::cpu.data            512                       # number of demand (read+write) MSHR misses
system.l2.demand_mshr_misses::total              1627                       # number of demand (read+write) MSHR misses
system.l2.overall_mshr_misses::cpu.inst          1115                       # number of overall MSHR misses
system.l2.overall_mshr_misses::cpu.data           512                       # number of overall MSHR misses
system.l2.overall_mshr_misses::l2.prefetcher         3599                       # number of overall MSHR misses
system.l2.overall_mshr_misses::total             5226                       # number of overall MSHR misses
system.l2.HardPFReq_mshr_miss_latency::l2.prefetcher     94283418                       # number of HardPFReq MSHR miss cycles
system.l2.HardPFReq_mshr_miss_latency::total     94283418                       # number of HardPFReq MSHR miss cycles
system.l2.ReadExReq_mshr_miss_latency::cpu.data     12257500                       # number of ReadExReq MSHR miss cycles
system.l2.ReadExReq_mshr_miss_latency::total     12257500                       # number of ReadExReq MSHR miss cycles
system.l2.ReadCleanReq_mshr_miss_latency::cpu.inst    133254000                       # number of ReadCleanReq MSHR miss cycles
system.l2.ReadCleanReq_mshr_miss_latency::total    133254000                       # number of ReadCleanReq MSHR miss cycles
system.l2.ReadSharedReq_mshr_miss_latency::cpu.data     60262500                       # number of ReadSharedReq MSHR miss cycles
system.l2.ReadSharedReq_mshr_miss_latency::total     60262500                       # number of ReadSharedReq MSHR miss cycles
system.l2.demand_mshr_miss_latency::cpu.inst    133254000                       # number of demand (read+write) MSHR miss cycles
system.l2.demand_mshr_miss_latency::cpu.data     72520000                       # number of demand (read+write) MSHR miss cycles
system.l2.demand_mshr_miss_latency::total    205774000                       # number of demand (read+write) MSHR miss cycles
system.l2.overall_mshr_miss_latency::cpu.inst    133254000                       # number of overall MSHR miss cycles
system.l2.overall_mshr_miss_latency::cpu.data     72520000                       # number of overall MSHR miss cycles
system.l2.overall_mshr_miss_latency::l2.prefetcher     94283418                       # number of overall MSHR miss cycles
system.l2.overall_mshr_miss_latency::total    300057418                       # number of overall MSHR miss cycles
system.l2.HardPFReq_mshr_miss_rate::l2.prefetcher          inf                       # mshr miss rate for HardPFReq accesses
system.l2.HardPFReq_mshr_miss_rate::total          inf                       # mshr miss rate for HardPFReq accesses
system.l2.ReadExReq_mshr_miss_rate::cpu.data     0.025313                       # mshr miss rate for ReadExReq accesses
system.l2.ReadExReq_mshr_miss_rate::total     0.025313                       # mshr miss rate for ReadExReq accesses
system.l2.ReadCleanReq_mshr_miss_rate::cpu.inst     0.222733                       # mshr miss rate for ReadCleanReq accesses
system.l2.ReadCleanReq_mshr_miss_rate::total     0.222733                       # mshr miss rate for ReadCleanReq accesses
system.l2.ReadSharedReq_mshr_miss_rate::cpu.data     0.125000                       # mshr miss rate for ReadSharedReq accesses
system.l2.ReadSharedReq_mshr_miss_rate::total     0.125000                       # mshr miss rate for ReadSharedReq accesses
system.l2.demand_mshr_miss_rate::cpu.inst     0.222733                       # mshr miss rate for demand accesses
system.l2.demand_mshr_miss_rate::cpu.data     0.072225                       # mshr miss rate for demand accesses
system.l2.demand_mshr_miss_rate::total       0.134518                       # mshr miss rate for demand accesses
system.l2.overall_mshr_miss_rate::cpu.inst     0.222733                       # mshr miss rate for overall accesses
system.l2.overall_mshr_miss_rate::cpu.data     0.072225                       # mshr miss rate for overall accesses
system.l2.overall_mshr_miss_rate::l2.prefetcher          inf                       # mshr miss rate for overall accesses
system.l2.overall_mshr_miss_rate::total      0.432079                       # mshr miss rate for overall accesses
system.l2.HardPFReq_avg_mshr_miss_latency::l2.prefetcher 26197.115310                       # average HardPFReq mshr miss latency
system.l2.HardPFReq_avg_mshr_miss_latency::total 26197.115310                       # average HardPFReq mshr miss latency
system.l2.ReadExReq_avg_mshr_miss_latency::cpu.data 129026.315789                       # average ReadExReq mshr miss latency
system.l2.ReadExReq_avg_mshr_miss_latency::total 129026.315789                       # average ReadExReq mshr miss latency
system.l2.ReadCleanReq_avg_mshr_miss_latency::cpu.inst 119510.313901                       # average ReadCleanReq mshr miss latency
system.l2.ReadCleanReq_avg_mshr_miss_latency::total 119510.313901                       # average ReadCleanReq mshr miss latency
system.l2.ReadSharedReq_avg_mshr_miss_latency::cpu.data 144514.388489                       # average ReadSharedReq mshr miss latency
system.l2.ReadSharedReq_avg_mshr_miss_latency::total 144514.388489                       # average ReadSharedReq mshr miss latency
system.l2.demand_avg_mshr_miss_latency::cpu.inst 119510.313901                       # average overall mshr miss latency
system.l2.demand_avg_mshr_miss_latency::cpu.data 141640.625000                       # average overall mshr miss latency
system.l2.demand_avg_mshr_miss_latency::total 126474.492932                       # average overall mshr miss latency
system.l2.overall_avg_mshr_miss_latency::cpu.inst 119510.313901                       # average overall mshr miss latency
system.l2.overall_avg_mshr_miss_latency::cpu.data 141640.625000                       # average overall mshr miss latency
system.l2.overall_avg_mshr_miss_latency::l2.prefetcher 26197.115310                       # average overall mshr miss latency
system.l2.overall_avg_mshr_miss_latency::total 57416.268274                       # average overall mshr miss latency
system.membus.snoop_filter.tot_requests          3151                       # Total number of requests made to the snoop filter.
system.membus.snoop_filter.hit_single_requests          355                       # Number of requests hitting in the snoop filter with a single holder of the requested data.
system.membus.snoop_filter.hit_multi_requests            0                       # Number of requests hitting in the snoop filter with multiple (>1) holders of the requested data.
system.membus.snoop_filter.tot_snoops               0                       # Total number of snoops made to the snoop filter.
system.membus.snoop_filter.hit_single_snoops            0                       # Number of snoops hitting in the snoop filter with a single holder of the requested data.
system.membus.snoop_filter.hit_multi_snoops            0                       # Number of snoops hitting in the snoop filter with multiple (>1) holders of the requested data.
system.membus.pwrStateResidencyTicks::UNDEFINED 105463711000                       # Cumulative time (in ticks) in various power states
system.membus.trans_dist::ReadResp               3056                       # Transaction distribution
system.membus.trans_dist::ReadExReq                95                       # Transaction distribution
system.membus.trans_dist::ReadExResp               95                       # Transaction distribution
system.membus.trans_dist::ReadCleanReq           3056                       # Transaction distribution
system.membus.pkt_count_system.l2.mem_side::system.mem_ctrls.port         6302                       # Packet count per connected master and slave (bytes)
system.membus.pkt_count::total                   6302                       # Packet count per connected master and slave (bytes)
system.membus.pkt_size_system.l2.mem_side::system.mem_ctrls.port       201664                       # Cumulative packet size per connected master and slave (bytes)
system.membus.pkt_size::total                  201664                       # Cumulative packet size per connected master and slave (bytes)
system.membus.snoops                                0                       # Total snoops (count)
system.membus.snoopTraffic                          0                       # Total snoop traffic (bytes)
system.membus.snoop_fanout::samples              3151                       # Request fanout histogram
system.membus.snoop_fanout::mean                    0                       # Request fanout histogram
system.membus.snoop_fanout::stdev                   0                       # Request fanout histogram
system.membus.snoop_fanout::underflows              0      0.00%      0.00% # Request fanout histogram
system.membus.snoop_fanout::0                    3151    100.00%    100.00% # Request fanout histogram
system.membus.snoop_fanout::1                       0      0.00%    100.00% # Request fanout histogram
system.membus.snoop_fanout::overflows               0      0.00%    100.00% # Request fanout histogram
system.membus.snoop_fanout::min_value               0                       # Request fanout histogram
system.membus.snoop_fanout::max_value               0                       # Request fanout histogram
system.membus.snoop_fanout::total                3151                       # Request fanout histogram
system.membus.reqLayer0.occupancy             4711689                       # Layer occupancy (ticks)
system.membus.reqLayer0.utilization               0.0                       # Layer utilization (%)
system.membus.respLayer1.occupancy           16547268                       # Layer occupancy (ticks)
system.membus.respLayer1.utilization              0.0                       # Layer utilization (%)
system.tol2bus.snoop_filter.tot_requests        22909                       # Total number of requests made to the snoop filter.
system.tol2bus.snoop_filter.hit_single_requests        10827                       # Number of requests hitting in the snoop filter with a single holder of the requested data.
system.tol2bus.snoop_filter.hit_multi_requests          352                       # Number of requests hitting in the snoop filter with multiple (>1) holders of the requested data.
system.tol2bus.snoop_filter.tot_snoops           2075                       # Total number of snoops made to the snoop filter.
system.tol2bus.snoop_filter.hit_single_snoops         2075                       # Number of snoops hitting in the snoop filter with a single holder of the requested data.
system.tol2bus.snoop_filter.hit_multi_snoops            0                       # Number of snoops hitting in the snoop filter with multiple (>1) holders of the requested data.
system.tol2bus.pwrStateResidencyTicks::UNDEFINED 105463711000                       # Cumulative time (in ticks) in various power states
system.tol2bus.trans_dist::ReadResp              8341                       # Transaction distribution
system.tol2bus.trans_dist::WritebackDirty         5057                       # Transaction distribution
system.tol2bus.trans_dist::WritebackClean         5757                       # Transaction distribution
system.tol2bus.trans_dist::HardPFReq             3830                       # Transaction distribution
system.tol2bus.trans_dist::ReadExReq             3753                       # Transaction distribution
system.tol2bus.trans_dist::ReadExResp            3753                       # Transaction distribution
system.tol2bus.trans_dist::ReadCleanReq          5006                       # Transaction distribution
system.tol2bus.trans_dist::ReadSharedReq         3336                       # Transaction distribution
system.tol2bus.pkt_count_system.cpu.icache.mem_side::system.l2.cpu_side        14760                       # Packet count per connected master and slave (bytes)
system.tol2bus.pkt_count_system.cpu.dcache.mem_side::system.l2.cpu_side        20243                       # Packet count per connected master and slave (bytes)
system.tol2bus.pkt_count::total                 35003                       # Packet count per connected master and slave (bytes)
system.tol2bus.pkt_size_system.cpu.icache.mem_side::system.l2.cpu_side       624256                       # Cumulative packet size per connected master and slave (bytes)
system.tol2bus.pkt_size_system.cpu.dcache.mem_side::system.l2.cpu_side       841856                       # Cumulative packet size per connected master and slave (bytes)
system.tol2bus.pkt_size::total                1466112                       # Cumulative packet size per connected master and slave (bytes)
system.tol2bus.snoops                            3830                       # Total snoops (count)
system.tol2bus.snoopTraffic                         0                       # Total snoop traffic (bytes)
system.tol2bus.snoop_fanout::samples            15925                       # Request fanout histogram
system.tol2bus.snoop_fanout::mean            0.153218                       # Request fanout histogram
system.tol2bus.snoop_fanout::stdev           0.360209                       # Request fanout histogram
system.tol2bus.snoop_fanout::underflows             0      0.00%      0.00% # Request fanout histogram
system.tol2bus.snoop_fanout::0                  13485     84.68%     84.68% # Request fanout histogram
system.tol2bus.snoop_fanout::1                   2440     15.32%    100.00% # Request fanout histogram
system.tol2bus.snoop_fanout::2                      0      0.00%    100.00% # Request fanout histogram
system.tol2bus.snoop_fanout::3                      0      0.00%    100.00% # Request fanout histogram
system.tol2bus.snoop_fanout::4                      0      0.00%    100.00% # Request fanout histogram
system.tol2bus.snoop_fanout::overflows              0      0.00%    100.00% # Request fanout histogram
system.tol2bus.snoop_fanout::min_value              0                       # Request fanout histogram
system.tol2bus.snoop_fanout::max_value              1                       # Request fanout histogram
system.tol2bus.snoop_fanout::total              15925                       # Request fanout histogram
system.tol2bus.reqLayer0.occupancy           22268500                       # Layer occupancy (ticks)
system.tol2bus.reqLayer0.utilization              0.0                       # Layer utilization (%)
system.tol2bus.respLayer0.occupancy           7508498                       # Layer occupancy (ticks)
system.tol2bus.respLayer0.utilization             0.0                       # Layer utilization (%)
system.tol2bus.respLayer1.occupancy          10637991                       # Layer occupancy (ticks)
system.tol2bus.respLayer1.utilization             0.0                       # Layer utilization (%)

---------- End Simulation Statistics   ----------
