
---------- Begin Simulation Statistics ----------
sim_seconds                                  1.674495                       # Number of seconds simulated
sim_ticks                                1674494906500                       # Number of ticks simulated
final_tick                               6474666914500                       # Number of ticks from beginning of simulation (restored from checkpoints and never reset)
sim_freq                                 1000000000000                       # Frequency of simulated ticks
host_inst_rate                                1357300                       # Simulator instruction rate (inst/s)
host_op_rate                                  3087651                       # Simulator op (including micro ops) rate (op/s)
host_tick_rate                             1507577954                       # Simulator tick rate (ticks/s)
host_mem_usage                                2327888                       # Number of bytes of host memory used
host_seconds                                  1110.72                       # Real time elapsed on the host
sim_insts                                  1507578621                       # Number of instructions simulated
sim_ops                                    3429511050                       # Number of ops (including micro ops) simulated
system.voltage_domain.voltage                       1                       # Voltage in Volts
system.clk_domain.clock                          1000                       # Clock period in ticks
system.mem_ctrls.pwrStateResidencyTicks::UNDEFINED 6474666914500                       # Cumulative time (in ticks) in various power states
system.mem_ctrls.bytes_read::switch_cpus0.inst           64                       # Number of bytes read from this memory
system.mem_ctrls.bytes_read::switch_cpus0.data          128                       # Number of bytes read from this memory
system.mem_ctrls.bytes_read::switch_cpus_10.inst        15552                       # Number of bytes read from this memory
system.mem_ctrls.bytes_read::switch_cpus_10.data        62784                       # Number of bytes read from this memory
system.mem_ctrls.bytes_read::switch_cpus_11.inst         6592                       # Number of bytes read from this memory
system.mem_ctrls.bytes_read::switch_cpus_11.data        41216                       # Number of bytes read from this memory
system.mem_ctrls.bytes_read::switch_cpus_12.inst          640                       # Number of bytes read from this memory
system.mem_ctrls.bytes_read::switch_cpus_12.data        34176                       # Number of bytes read from this memory
system.mem_ctrls.bytes_read::switch_cpus_13.dtb.walker           64                       # Number of bytes read from this memory
system.mem_ctrls.bytes_read::switch_cpus_13.inst         1536                       # Number of bytes read from this memory
system.mem_ctrls.bytes_read::switch_cpus_13.data        22208                       # Number of bytes read from this memory
system.mem_ctrls.bytes_read::switch_cpus_14.inst          832                       # Number of bytes read from this memory
system.mem_ctrls.bytes_read::switch_cpus_14.data        17920                       # Number of bytes read from this memory
system.mem_ctrls.bytes_read::switch_cpus_15.inst          704                       # Number of bytes read from this memory
system.mem_ctrls.bytes_read::switch_cpus_15.data        17984                       # Number of bytes read from this memory
system.mem_ctrls.bytes_read::switch_cpus_16.inst         1920                       # Number of bytes read from this memory
system.mem_ctrls.bytes_read::switch_cpus_16.data         6784                       # Number of bytes read from this memory
system.mem_ctrls.bytes_read::switch_cpus_17.inst         1984                       # Number of bytes read from this memory
system.mem_ctrls.bytes_read::switch_cpus_17.data        43648                       # Number of bytes read from this memory
system.mem_ctrls.bytes_read::total             276736                       # Number of bytes read from this memory
system.mem_ctrls.bytes_inst_read::switch_cpus0.inst           64                       # Number of instructions bytes read from this memory
system.mem_ctrls.bytes_inst_read::switch_cpus_10.inst        15552                       # Number of instructions bytes read from this memory
system.mem_ctrls.bytes_inst_read::switch_cpus_11.inst         6592                       # Number of instructions bytes read from this memory
system.mem_ctrls.bytes_inst_read::switch_cpus_12.inst          640                       # Number of instructions bytes read from this memory
system.mem_ctrls.bytes_inst_read::switch_cpus_13.inst         1536                       # Number of instructions bytes read from this memory
system.mem_ctrls.bytes_inst_read::switch_cpus_14.inst          832                       # Number of instructions bytes read from this memory
system.mem_ctrls.bytes_inst_read::switch_cpus_15.inst          704                       # Number of instructions bytes read from this memory
system.mem_ctrls.bytes_inst_read::switch_cpus_16.inst         1920                       # Number of instructions bytes read from this memory
system.mem_ctrls.bytes_inst_read::switch_cpus_17.inst         1984                       # Number of instructions bytes read from this memory
system.mem_ctrls.bytes_inst_read::total         29824                       # Number of instructions bytes read from this memory
system.mem_ctrls.bytes_written::writebacks      1440512                       # Number of bytes written to this memory
system.mem_ctrls.bytes_written::total         1440512                       # Number of bytes written to this memory
system.mem_ctrls.num_reads::switch_cpus0.inst            1                       # Number of read requests responded to by this memory
system.mem_ctrls.num_reads::switch_cpus0.data            2                       # Number of read requests responded to by this memory
system.mem_ctrls.num_reads::switch_cpus_10.inst          243                       # Number of read requests responded to by this memory
system.mem_ctrls.num_reads::switch_cpus_10.data          981                       # Number of read requests responded to by this memory
system.mem_ctrls.num_reads::switch_cpus_11.inst          103                       # Number of read requests responded to by this memory
system.mem_ctrls.num_reads::switch_cpus_11.data          644                       # Number of read requests responded to by this memory
system.mem_ctrls.num_reads::switch_cpus_12.inst           10                       # Number of read requests responded to by this memory
system.mem_ctrls.num_reads::switch_cpus_12.data          534                       # Number of read requests responded to by this memory
system.mem_ctrls.num_reads::switch_cpus_13.dtb.walker            1                       # Number of read requests responded to by this memory
system.mem_ctrls.num_reads::switch_cpus_13.inst           24                       # Number of read requests responded to by this memory
system.mem_ctrls.num_reads::switch_cpus_13.data          347                       # Number of read requests responded to by this memory
system.mem_ctrls.num_reads::switch_cpus_14.inst           13                       # Number of read requests responded to by this memory
system.mem_ctrls.num_reads::switch_cpus_14.data          280                       # Number of read requests responded to by this memory
system.mem_ctrls.num_reads::switch_cpus_15.inst           11                       # Number of read requests responded to by this memory
system.mem_ctrls.num_reads::switch_cpus_15.data          281                       # Number of read requests responded to by this memory
system.mem_ctrls.num_reads::switch_cpus_16.inst           30                       # Number of read requests responded to by this memory
system.mem_ctrls.num_reads::switch_cpus_16.data          106                       # Number of read requests responded to by this memory
system.mem_ctrls.num_reads::switch_cpus_17.inst           31                       # Number of read requests responded to by this memory
system.mem_ctrls.num_reads::switch_cpus_17.data          682                       # Number of read requests responded to by this memory
system.mem_ctrls.num_reads::total                4324                       # Number of read requests responded to by this memory
system.mem_ctrls.num_writes::writebacks         22508                       # Number of write requests responded to by this memory
system.mem_ctrls.num_writes::total              22508                       # Number of write requests responded to by this memory
system.mem_ctrls.bw_read::switch_cpus0.inst           38                       # Total read bandwidth from this memory (bytes/s)
system.mem_ctrls.bw_read::switch_cpus0.data           76                       # Total read bandwidth from this memory (bytes/s)
system.mem_ctrls.bw_read::switch_cpus_10.inst         9288                       # Total read bandwidth from this memory (bytes/s)
system.mem_ctrls.bw_read::switch_cpus_10.data        37494                       # Total read bandwidth from this memory (bytes/s)
system.mem_ctrls.bw_read::switch_cpus_11.inst         3937                       # Total read bandwidth from this memory (bytes/s)
system.mem_ctrls.bw_read::switch_cpus_11.data        24614                       # Total read bandwidth from this memory (bytes/s)
system.mem_ctrls.bw_read::switch_cpus_12.inst          382                       # Total read bandwidth from this memory (bytes/s)
system.mem_ctrls.bw_read::switch_cpus_12.data        20410                       # Total read bandwidth from this memory (bytes/s)
system.mem_ctrls.bw_read::switch_cpus_13.dtb.walker           38                       # Total read bandwidth from this memory (bytes/s)
system.mem_ctrls.bw_read::switch_cpus_13.inst          917                       # Total read bandwidth from this memory (bytes/s)
system.mem_ctrls.bw_read::switch_cpus_13.data        13263                       # Total read bandwidth from this memory (bytes/s)
system.mem_ctrls.bw_read::switch_cpus_14.inst          497                       # Total read bandwidth from this memory (bytes/s)
system.mem_ctrls.bw_read::switch_cpus_14.data        10702                       # Total read bandwidth from this memory (bytes/s)
system.mem_ctrls.bw_read::switch_cpus_15.inst          420                       # Total read bandwidth from this memory (bytes/s)
system.mem_ctrls.bw_read::switch_cpus_15.data        10740                       # Total read bandwidth from this memory (bytes/s)
system.mem_ctrls.bw_read::switch_cpus_16.inst         1147                       # Total read bandwidth from this memory (bytes/s)
system.mem_ctrls.bw_read::switch_cpus_16.data         4051                       # Total read bandwidth from this memory (bytes/s)
system.mem_ctrls.bw_read::switch_cpus_17.inst         1185                       # Total read bandwidth from this memory (bytes/s)
system.mem_ctrls.bw_read::switch_cpus_17.data        26066                       # Total read bandwidth from this memory (bytes/s)
system.mem_ctrls.bw_read::total                165265                       # Total read bandwidth from this memory (bytes/s)
system.mem_ctrls.bw_inst_read::switch_cpus0.inst           38                       # Instruction read bandwidth from this memory (bytes/s)
system.mem_ctrls.bw_inst_read::switch_cpus_10.inst         9288                       # Instruction read bandwidth from this memory (bytes/s)
system.mem_ctrls.bw_inst_read::switch_cpus_11.inst         3937                       # Instruction read bandwidth from this memory (bytes/s)
system.mem_ctrls.bw_inst_read::switch_cpus_12.inst          382                       # Instruction read bandwidth from this memory (bytes/s)
system.mem_ctrls.bw_inst_read::switch_cpus_13.inst          917                       # Instruction read bandwidth from this memory (bytes/s)
system.mem_ctrls.bw_inst_read::switch_cpus_14.inst          497                       # Instruction read bandwidth from this memory (bytes/s)
system.mem_ctrls.bw_inst_read::switch_cpus_15.inst          420                       # Instruction read bandwidth from this memory (bytes/s)
system.mem_ctrls.bw_inst_read::switch_cpus_16.inst         1147                       # Instruction read bandwidth from this memory (bytes/s)
system.mem_ctrls.bw_inst_read::switch_cpus_17.inst         1185                       # Instruction read bandwidth from this memory (bytes/s)
system.mem_ctrls.bw_inst_read::total            17811                       # Instruction read bandwidth from this memory (bytes/s)
system.mem_ctrls.bw_write::writebacks          860267                       # Write bandwidth from this memory (bytes/s)
system.mem_ctrls.bw_write::total               860267                       # Write bandwidth from this memory (bytes/s)
system.mem_ctrls.bw_total::writebacks          860267                       # Total bandwidth to/from this memory (bytes/s)
system.mem_ctrls.bw_total::switch_cpus0.inst           38                       # Total bandwidth to/from this memory (bytes/s)
system.mem_ctrls.bw_total::switch_cpus0.data           76                       # Total bandwidth to/from this memory (bytes/s)
system.mem_ctrls.bw_total::switch_cpus_10.inst         9288                       # Total bandwidth to/from this memory (bytes/s)
system.mem_ctrls.bw_total::switch_cpus_10.data        37494                       # Total bandwidth to/from this memory (bytes/s)
system.mem_ctrls.bw_total::switch_cpus_11.inst         3937                       # Total bandwidth to/from this memory (bytes/s)
system.mem_ctrls.bw_total::switch_cpus_11.data        24614                       # Total bandwidth to/from this memory (bytes/s)
system.mem_ctrls.bw_total::switch_cpus_12.inst          382                       # Total bandwidth to/from this memory (bytes/s)
system.mem_ctrls.bw_total::switch_cpus_12.data        20410                       # Total bandwidth to/from this memory (bytes/s)
system.mem_ctrls.bw_total::switch_cpus_13.dtb.walker           38                       # Total bandwidth to/from this memory (bytes/s)
system.mem_ctrls.bw_total::switch_cpus_13.inst          917                       # Total bandwidth to/from this memory (bytes/s)
system.mem_ctrls.bw_total::switch_cpus_13.data        13263                       # Total bandwidth to/from this memory (bytes/s)
system.mem_ctrls.bw_total::switch_cpus_14.inst          497                       # Total bandwidth to/from this memory (bytes/s)
system.mem_ctrls.bw_total::switch_cpus_14.data        10702                       # Total bandwidth to/from this memory (bytes/s)
system.mem_ctrls.bw_total::switch_cpus_15.inst          420                       # Total bandwidth to/from this memory (bytes/s)
system.mem_ctrls.bw_total::switch_cpus_15.data        10740                       # Total bandwidth to/from this memory (bytes/s)
system.mem_ctrls.bw_total::switch_cpus_16.inst         1147                       # Total bandwidth to/from this memory (bytes/s)
system.mem_ctrls.bw_total::switch_cpus_16.data         4051                       # Total bandwidth to/from this memory (bytes/s)
system.mem_ctrls.bw_total::switch_cpus_17.inst         1185                       # Total bandwidth to/from this memory (bytes/s)
system.mem_ctrls.bw_total::switch_cpus_17.data        26066                       # Total bandwidth to/from this memory (bytes/s)
system.mem_ctrls.bw_total::total              1025532                       # Total bandwidth to/from this memory (bytes/s)
system.mem_ctrls.readReqs                        4321                       # Number of read requests accepted
system.mem_ctrls.writeReqs                      22506                       # Number of write requests accepted
system.mem_ctrls.readBursts                      4321                       # Number of DRAM read bursts, including those serviced by the write queue
system.mem_ctrls.writeBursts                    22506                       # Number of DRAM write bursts, including those merged in the write queue
system.mem_ctrls.bytesReadDRAM                 275712                       # Total number of bytes read from DRAM
system.mem_ctrls.bytesReadWrQ                     832                       # Total number of bytes read from write queue
system.mem_ctrls.bytesWritten                 1439424                       # Total number of bytes written to DRAM
system.mem_ctrls.bytesReadSys                  276544                       # Total read bytes from the system interface side
system.mem_ctrls.bytesWrittenSys              1440384                       # Total written bytes from the system interface side
system.mem_ctrls.servicedByWrQ                     13                       # Number of DRAM read bursts serviced by the write queue
system.mem_ctrls.mergedWrBursts                     0                       # Number of DRAM write bursts merged with an existing one
system.mem_ctrls.neitherReadNorWriteReqs            0                       # Number of requests that are neither read nor write
system.mem_ctrls.perBankRdBursts::0               359                       # Per bank write bursts
system.mem_ctrls.perBankRdBursts::1               205                       # Per bank write bursts
system.mem_ctrls.perBankRdBursts::2               130                       # Per bank write bursts
system.mem_ctrls.perBankRdBursts::3               187                       # Per bank write bursts
system.mem_ctrls.perBankRdBursts::4               423                       # Per bank write bursts
system.mem_ctrls.perBankRdBursts::5               166                       # Per bank write bursts
system.mem_ctrls.perBankRdBursts::6               188                       # Per bank write bursts
system.mem_ctrls.perBankRdBursts::7               208                       # Per bank write bursts
system.mem_ctrls.perBankRdBursts::8               350                       # Per bank write bursts
system.mem_ctrls.perBankRdBursts::9               324                       # Per bank write bursts
system.mem_ctrls.perBankRdBursts::10              289                       # Per bank write bursts
system.mem_ctrls.perBankRdBursts::11              156                       # Per bank write bursts
system.mem_ctrls.perBankRdBursts::12              644                       # Per bank write bursts
system.mem_ctrls.perBankRdBursts::13              291                       # Per bank write bursts
system.mem_ctrls.perBankRdBursts::14              282                       # Per bank write bursts
system.mem_ctrls.perBankRdBursts::15              106                       # Per bank write bursts
system.mem_ctrls.perBankWrBursts::0              1131                       # Per bank write bursts
system.mem_ctrls.perBankWrBursts::1              1039                       # Per bank write bursts
system.mem_ctrls.perBankWrBursts::2               828                       # Per bank write bursts
system.mem_ctrls.perBankWrBursts::3              1007                       # Per bank write bursts
system.mem_ctrls.perBankWrBursts::4              1357                       # Per bank write bursts
system.mem_ctrls.perBankWrBursts::5              1349                       # Per bank write bursts
system.mem_ctrls.perBankWrBursts::6              1407                       # Per bank write bursts
system.mem_ctrls.perBankWrBursts::7              1426                       # Per bank write bursts
system.mem_ctrls.perBankWrBursts::8              1539                       # Per bank write bursts
system.mem_ctrls.perBankWrBursts::9              1721                       # Per bank write bursts
system.mem_ctrls.perBankWrBursts::10             1714                       # Per bank write bursts
system.mem_ctrls.perBankWrBursts::11             1715                       # Per bank write bursts
system.mem_ctrls.perBankWrBursts::12             1751                       # Per bank write bursts
system.mem_ctrls.perBankWrBursts::13             1565                       # Per bank write bursts
system.mem_ctrls.perBankWrBursts::14             1690                       # Per bank write bursts
system.mem_ctrls.perBankWrBursts::15             1252                       # Per bank write bursts
system.mem_ctrls.numRdRetry                         0                       # Number of times read queue was full causing retry
system.mem_ctrls.numWrRetry                        21                       # Number of times write queue was full causing retry
system.mem_ctrls.totGap                  1390601528500                       # Total gap between requests
system.mem_ctrls.readPktSize::0                     0                       # Read request sizes (log2)
system.mem_ctrls.readPktSize::1                     0                       # Read request sizes (log2)
system.mem_ctrls.readPktSize::2                     0                       # Read request sizes (log2)
system.mem_ctrls.readPktSize::3                     0                       # Read request sizes (log2)
system.mem_ctrls.readPktSize::4                     0                       # Read request sizes (log2)
system.mem_ctrls.readPktSize::5                     0                       # Read request sizes (log2)
system.mem_ctrls.readPktSize::6                  4321                       # Read request sizes (log2)
system.mem_ctrls.writePktSize::0                    0                       # Write request sizes (log2)
system.mem_ctrls.writePktSize::1                    0                       # Write request sizes (log2)
system.mem_ctrls.writePktSize::2                    0                       # Write request sizes (log2)
system.mem_ctrls.writePktSize::3                    0                       # Write request sizes (log2)
system.mem_ctrls.writePktSize::4                    0                       # Write request sizes (log2)
system.mem_ctrls.writePktSize::5                    0                       # Write request sizes (log2)
system.mem_ctrls.writePktSize::6                22506                       # Write request sizes (log2)
system.mem_ctrls.rdQLenPdf::0                    4273                       # What read queue length does an incoming req see
system.mem_ctrls.rdQLenPdf::1                      26                       # What read queue length does an incoming req see
system.mem_ctrls.rdQLenPdf::2                       6                       # What read queue length does an incoming req see
system.mem_ctrls.rdQLenPdf::3                       3                       # What read queue length does an incoming req see
system.mem_ctrls.rdQLenPdf::4                       0                       # What read queue length does an incoming req see
system.mem_ctrls.rdQLenPdf::5                       0                       # What read queue length does an incoming req see
system.mem_ctrls.rdQLenPdf::6                       0                       # What read queue length does an incoming req see
system.mem_ctrls.rdQLenPdf::7                       0                       # What read queue length does an incoming req see
system.mem_ctrls.rdQLenPdf::8                       0                       # What read queue length does an incoming req see
system.mem_ctrls.rdQLenPdf::9                       0                       # What read queue length does an incoming req see
system.mem_ctrls.rdQLenPdf::10                      0                       # What read queue length does an incoming req see
system.mem_ctrls.rdQLenPdf::11                      0                       # What read queue length does an incoming req see
system.mem_ctrls.rdQLenPdf::12                      0                       # What read queue length does an incoming req see
system.mem_ctrls.rdQLenPdf::13                      0                       # What read queue length does an incoming req see
system.mem_ctrls.rdQLenPdf::14                      0                       # What read queue length does an incoming req see
system.mem_ctrls.rdQLenPdf::15                      0                       # What read queue length does an incoming req see
system.mem_ctrls.rdQLenPdf::16                      0                       # What read queue length does an incoming req see
system.mem_ctrls.rdQLenPdf::17                      0                       # What read queue length does an incoming req see
system.mem_ctrls.rdQLenPdf::18                      0                       # What read queue length does an incoming req see
system.mem_ctrls.rdQLenPdf::19                      0                       # What read queue length does an incoming req see
system.mem_ctrls.rdQLenPdf::20                      0                       # What read queue length does an incoming req see
system.mem_ctrls.rdQLenPdf::21                      0                       # What read queue length does an incoming req see
system.mem_ctrls.rdQLenPdf::22                      0                       # What read queue length does an incoming req see
system.mem_ctrls.rdQLenPdf::23                      0                       # What read queue length does an incoming req see
system.mem_ctrls.rdQLenPdf::24                      0                       # What read queue length does an incoming req see
system.mem_ctrls.rdQLenPdf::25                      0                       # What read queue length does an incoming req see
system.mem_ctrls.rdQLenPdf::26                      0                       # What read queue length does an incoming req see
system.mem_ctrls.rdQLenPdf::27                      0                       # What read queue length does an incoming req see
system.mem_ctrls.rdQLenPdf::28                      0                       # What read queue length does an incoming req see
system.mem_ctrls.rdQLenPdf::29                      0                       # What read queue length does an incoming req see
system.mem_ctrls.rdQLenPdf::30                      0                       # What read queue length does an incoming req see
system.mem_ctrls.rdQLenPdf::31                      0                       # What read queue length does an incoming req see
system.mem_ctrls.wrQLenPdf::0                       1                       # What write queue length does an incoming req see
system.mem_ctrls.wrQLenPdf::1                       1                       # What write queue length does an incoming req see
system.mem_ctrls.wrQLenPdf::2                       1                       # What write queue length does an incoming req see
system.mem_ctrls.wrQLenPdf::3                       1                       # What write queue length does an incoming req see
system.mem_ctrls.wrQLenPdf::4                       1                       # What write queue length does an incoming req see
system.mem_ctrls.wrQLenPdf::5                       1                       # What write queue length does an incoming req see
system.mem_ctrls.wrQLenPdf::6                       1                       # What write queue length does an incoming req see
system.mem_ctrls.wrQLenPdf::7                       1                       # What write queue length does an incoming req see
system.mem_ctrls.wrQLenPdf::8                       1                       # What write queue length does an incoming req see
system.mem_ctrls.wrQLenPdf::9                       1                       # What write queue length does an incoming req see
system.mem_ctrls.wrQLenPdf::10                      1                       # What write queue length does an incoming req see
system.mem_ctrls.wrQLenPdf::11                      1                       # What write queue length does an incoming req see
system.mem_ctrls.wrQLenPdf::12                      1                       # What write queue length does an incoming req see
system.mem_ctrls.wrQLenPdf::13                      1                       # What write queue length does an incoming req see
system.mem_ctrls.wrQLenPdf::14                      1                       # What write queue length does an incoming req see
system.mem_ctrls.wrQLenPdf::15                    453                       # What write queue length does an incoming req see
system.mem_ctrls.wrQLenPdf::16                    966                       # What write queue length does an incoming req see
system.mem_ctrls.wrQLenPdf::17                    731                       # What write queue length does an incoming req see
system.mem_ctrls.wrQLenPdf::18                    709                       # What write queue length does an incoming req see
system.mem_ctrls.wrQLenPdf::19                    920                       # What write queue length does an incoming req see
system.mem_ctrls.wrQLenPdf::20                    742                       # What write queue length does an incoming req see
system.mem_ctrls.wrQLenPdf::21                    924                       # What write queue length does an incoming req see
system.mem_ctrls.wrQLenPdf::22                   1110                       # What write queue length does an incoming req see
system.mem_ctrls.wrQLenPdf::23                   1614                       # What write queue length does an incoming req see
system.mem_ctrls.wrQLenPdf::24                   1373                       # What write queue length does an incoming req see
system.mem_ctrls.wrQLenPdf::25                   2113                       # What write queue length does an incoming req see
system.mem_ctrls.wrQLenPdf::26                   2506                       # What write queue length does an incoming req see
system.mem_ctrls.wrQLenPdf::27                   1419                       # What write queue length does an incoming req see
system.mem_ctrls.wrQLenPdf::28                   1006                       # What write queue length does an incoming req see
system.mem_ctrls.wrQLenPdf::29                    993                       # What write queue length does an incoming req see
system.mem_ctrls.wrQLenPdf::30                    904                       # What write queue length does an incoming req see
system.mem_ctrls.wrQLenPdf::31                    692                       # What write queue length does an incoming req see
system.mem_ctrls.wrQLenPdf::32                    697                       # What write queue length does an incoming req see
system.mem_ctrls.wrQLenPdf::33                    115                       # What write queue length does an incoming req see
system.mem_ctrls.wrQLenPdf::34                    122                       # What write queue length does an incoming req see
system.mem_ctrls.wrQLenPdf::35                     94                       # What write queue length does an incoming req see
system.mem_ctrls.wrQLenPdf::36                     91                       # What write queue length does an incoming req see
system.mem_ctrls.wrQLenPdf::37                     84                       # What write queue length does an incoming req see
system.mem_ctrls.wrQLenPdf::38                     59                       # What write queue length does an incoming req see
system.mem_ctrls.wrQLenPdf::39                     90                       # What write queue length does an incoming req see
system.mem_ctrls.wrQLenPdf::40                     91                       # What write queue length does an incoming req see
system.mem_ctrls.wrQLenPdf::41                     77                       # What write queue length does an incoming req see
system.mem_ctrls.wrQLenPdf::42                    105                       # What write queue length does an incoming req see
system.mem_ctrls.wrQLenPdf::43                     93                       # What write queue length does an incoming req see
system.mem_ctrls.wrQLenPdf::44                    139                       # What write queue length does an incoming req see
system.mem_ctrls.wrQLenPdf::45                    105                       # What write queue length does an incoming req see
system.mem_ctrls.wrQLenPdf::46                    133                       # What write queue length does an incoming req see
system.mem_ctrls.wrQLenPdf::47                     90                       # What write queue length does an incoming req see
system.mem_ctrls.wrQLenPdf::48                     91                       # What write queue length does an incoming req see
system.mem_ctrls.wrQLenPdf::49                    106                       # What write queue length does an incoming req see
system.mem_ctrls.wrQLenPdf::50                     97                       # What write queue length does an incoming req see
system.mem_ctrls.wrQLenPdf::51                     74                       # What write queue length does an incoming req see
system.mem_ctrls.wrQLenPdf::52                     88                       # What write queue length does an incoming req see
system.mem_ctrls.wrQLenPdf::53                     69                       # What write queue length does an incoming req see
system.mem_ctrls.wrQLenPdf::54                     54                       # What write queue length does an incoming req see
system.mem_ctrls.wrQLenPdf::55                     74                       # What write queue length does an incoming req see
system.mem_ctrls.wrQLenPdf::56                     97                       # What write queue length does an incoming req see
system.mem_ctrls.wrQLenPdf::57                     58                       # What write queue length does an incoming req see
system.mem_ctrls.wrQLenPdf::58                     48                       # What write queue length does an incoming req see
system.mem_ctrls.wrQLenPdf::59                     73                       # What write queue length does an incoming req see
system.mem_ctrls.wrQLenPdf::60                     58                       # What write queue length does an incoming req see
system.mem_ctrls.wrQLenPdf::61                     65                       # What write queue length does an incoming req see
system.mem_ctrls.wrQLenPdf::62                     23                       # What write queue length does an incoming req see
system.mem_ctrls.wrQLenPdf::63                     56                       # What write queue length does an incoming req see
system.mem_ctrls.bytesPerActivate::samples         4465                       # Bytes accessed per row activation
system.mem_ctrls.bytesPerActivate::mean    384.129003                       # Bytes accessed per row activation
system.mem_ctrls.bytesPerActivate::gmean   181.304234                       # Bytes accessed per row activation
system.mem_ctrls.bytesPerActivate::stdev   429.050311                       # Bytes accessed per row activation
system.mem_ctrls.bytesPerActivate::0-127         2321     51.98%     51.98% # Bytes accessed per row activation
system.mem_ctrls.bytesPerActivate::128-255          520     11.65%     63.63% # Bytes accessed per row activation
system.mem_ctrls.bytesPerActivate::256-383          127      2.84%     66.47% # Bytes accessed per row activation
system.mem_ctrls.bytesPerActivate::384-511           64      1.43%     67.91% # Bytes accessed per row activation
system.mem_ctrls.bytesPerActivate::512-639           41      0.92%     68.82% # Bytes accessed per row activation
system.mem_ctrls.bytesPerActivate::640-767           29      0.65%     69.47% # Bytes accessed per row activation
system.mem_ctrls.bytesPerActivate::768-895           18      0.40%     69.88% # Bytes accessed per row activation
system.mem_ctrls.bytesPerActivate::896-1023           51      1.14%     71.02% # Bytes accessed per row activation
system.mem_ctrls.bytesPerActivate::1024-1151         1294     28.98%    100.00% # Bytes accessed per row activation
system.mem_ctrls.bytesPerActivate::total         4465                       # Bytes accessed per row activation
system.mem_ctrls.rdPerTurnAround::samples          513                       # Reads before turning the bus around for writes
system.mem_ctrls.rdPerTurnAround::mean       8.387914                       # Reads before turning the bus around for writes
system.mem_ctrls.rdPerTurnAround::stdev     23.353006                       # Reads before turning the bus around for writes
system.mem_ctrls.rdPerTurnAround::0-7             409     79.73%     79.73% # Reads before turning the bus around for writes
system.mem_ctrls.rdPerTurnAround::8-15             14      2.73%     82.46% # Reads before turning the bus around for writes
system.mem_ctrls.rdPerTurnAround::16-23            34      6.63%     89.08% # Reads before turning the bus around for writes
system.mem_ctrls.rdPerTurnAround::24-31             9      1.75%     90.84% # Reads before turning the bus around for writes
system.mem_ctrls.rdPerTurnAround::32-39            15      2.92%     93.76% # Reads before turning the bus around for writes
system.mem_ctrls.rdPerTurnAround::40-47             4      0.78%     94.54% # Reads before turning the bus around for writes
system.mem_ctrls.rdPerTurnAround::48-55             3      0.58%     95.13% # Reads before turning the bus around for writes
system.mem_ctrls.rdPerTurnAround::56-63             6      1.17%     96.30% # Reads before turning the bus around for writes
system.mem_ctrls.rdPerTurnAround::64-71             4      0.78%     97.08% # Reads before turning the bus around for writes
system.mem_ctrls.rdPerTurnAround::72-79             2      0.39%     97.47% # Reads before turning the bus around for writes
system.mem_ctrls.rdPerTurnAround::80-87             3      0.58%     98.05% # Reads before turning the bus around for writes
system.mem_ctrls.rdPerTurnAround::88-95             3      0.58%     98.64% # Reads before turning the bus around for writes
system.mem_ctrls.rdPerTurnAround::104-111            3      0.58%     99.22% # Reads before turning the bus around for writes
system.mem_ctrls.rdPerTurnAround::144-151            3      0.58%     99.81% # Reads before turning the bus around for writes
system.mem_ctrls.rdPerTurnAround::248-255            1      0.19%    100.00% # Reads before turning the bus around for writes
system.mem_ctrls.rdPerTurnAround::total           513                       # Reads before turning the bus around for writes
system.mem_ctrls.wrPerTurnAround::samples          513                       # Writes before turning the bus around for reads
system.mem_ctrls.wrPerTurnAround::mean      43.842105                       # Writes before turning the bus around for reads
system.mem_ctrls.wrPerTurnAround::gmean     36.710416                       # Writes before turning the bus around for reads
system.mem_ctrls.wrPerTurnAround::stdev     30.494627                       # Writes before turning the bus around for reads
system.mem_ctrls.wrPerTurnAround::16-19            98     19.10%     19.10% # Writes before turning the bus around for reads
system.mem_ctrls.wrPerTurnAround::20-23            30      5.85%     24.95% # Writes before turning the bus around for reads
system.mem_ctrls.wrPerTurnAround::24-27             9      1.75%     26.71% # Writes before turning the bus around for reads
system.mem_ctrls.wrPerTurnAround::28-31            24      4.68%     31.38% # Writes before turning the bus around for reads
system.mem_ctrls.wrPerTurnAround::32-35           145     28.27%     59.65% # Writes before turning the bus around for reads
system.mem_ctrls.wrPerTurnAround::36-39            11      2.14%     61.79% # Writes before turning the bus around for reads
system.mem_ctrls.wrPerTurnAround::40-43            18      3.51%     65.30% # Writes before turning the bus around for reads
system.mem_ctrls.wrPerTurnAround::44-47             9      1.75%     67.06% # Writes before turning the bus around for reads
system.mem_ctrls.wrPerTurnAround::48-51             5      0.97%     68.03% # Writes before turning the bus around for reads
system.mem_ctrls.wrPerTurnAround::52-55             2      0.39%     68.42% # Writes before turning the bus around for reads
system.mem_ctrls.wrPerTurnAround::56-59             2      0.39%     68.81% # Writes before turning the bus around for reads
system.mem_ctrls.wrPerTurnAround::60-63             8      1.56%     70.37% # Writes before turning the bus around for reads
system.mem_ctrls.wrPerTurnAround::64-67           111     21.64%     92.01% # Writes before turning the bus around for reads
system.mem_ctrls.wrPerTurnAround::68-71             2      0.39%     92.40% # Writes before turning the bus around for reads
system.mem_ctrls.wrPerTurnAround::76-79             6      1.17%     93.57% # Writes before turning the bus around for reads
system.mem_ctrls.wrPerTurnAround::80-83             2      0.39%     93.96% # Writes before turning the bus around for reads
system.mem_ctrls.wrPerTurnAround::84-87             3      0.58%     94.54% # Writes before turning the bus around for reads
system.mem_ctrls.wrPerTurnAround::88-91             1      0.19%     94.74% # Writes before turning the bus around for reads
system.mem_ctrls.wrPerTurnAround::92-95             1      0.19%     94.93% # Writes before turning the bus around for reads
system.mem_ctrls.wrPerTurnAround::104-107            2      0.39%     95.32% # Writes before turning the bus around for reads
system.mem_ctrls.wrPerTurnAround::108-111            5      0.97%     96.30% # Writes before turning the bus around for reads
system.mem_ctrls.wrPerTurnAround::120-123            1      0.19%     96.49% # Writes before turning the bus around for reads
system.mem_ctrls.wrPerTurnAround::124-127            1      0.19%     96.69% # Writes before turning the bus around for reads
system.mem_ctrls.wrPerTurnAround::128-131            7      1.36%     98.05% # Writes before turning the bus around for reads
system.mem_ctrls.wrPerTurnAround::140-143            1      0.19%     98.25% # Writes before turning the bus around for reads
system.mem_ctrls.wrPerTurnAround::144-147            1      0.19%     98.44% # Writes before turning the bus around for reads
system.mem_ctrls.wrPerTurnAround::160-163            1      0.19%     98.64% # Writes before turning the bus around for reads
system.mem_ctrls.wrPerTurnAround::180-183            1      0.19%     98.83% # Writes before turning the bus around for reads
system.mem_ctrls.wrPerTurnAround::184-187            1      0.19%     99.03% # Writes before turning the bus around for reads
system.mem_ctrls.wrPerTurnAround::188-191            1      0.19%     99.22% # Writes before turning the bus around for reads
system.mem_ctrls.wrPerTurnAround::192-195            3      0.58%     99.81% # Writes before turning the bus around for reads
system.mem_ctrls.wrPerTurnAround::248-251            1      0.19%    100.00% # Writes before turning the bus around for reads
system.mem_ctrls.wrPerTurnAround::total           513                       # Writes before turning the bus around for reads
system.mem_ctrls.totQLat                    402971000                       # Total ticks spent queuing
system.mem_ctrls.totMemAccLat               483746000                       # Total ticks spent from burst creation until serviced by the DRAM
system.mem_ctrls.totBusLat                   21540000                       # Total ticks spent in databus transfers
system.mem_ctrls.avgQLat                     93540.16                       # Average queueing delay per DRAM burst
system.mem_ctrls.avgBusLat                    5000.00                       # Average bus latency per DRAM burst
system.mem_ctrls.avgMemAccLat               112290.16                       # Average memory access latency per DRAM burst
system.mem_ctrls.avgRdBW                         0.16                       # Average DRAM read bandwidth in MiByte/s
system.mem_ctrls.avgWrBW                         0.86                       # Average achieved write bandwidth in MiByte/s
system.mem_ctrls.avgRdBWSys                      0.17                       # Average system read bandwidth in MiByte/s
system.mem_ctrls.avgWrBWSys                      0.86                       # Average system write bandwidth in MiByte/s
system.mem_ctrls.peakBW                      12800.00                       # Theoretical peak bandwidth in MiByte/s
system.mem_ctrls.busUtil                         0.01                       # Data bus utilization in percentage
system.mem_ctrls.busUtilRead                     0.00                       # Data bus utilization in percentage for reads
system.mem_ctrls.busUtilWrite                    0.01                       # Data bus utilization in percentage for writes
system.mem_ctrls.avgRdQLen                       1.00                       # Average read queue length when enqueuing
system.mem_ctrls.avgWrQLen                      26.59                       # Average write queue length when enqueuing
system.mem_ctrls.readRowHits                     2276                       # Number of row buffer hits during reads
system.mem_ctrls.writeRowHits                   20058                       # Number of row buffer hits during writes
system.mem_ctrls.readRowHitRate                 52.83                       # Row buffer hit rate for reads
system.mem_ctrls.writeRowHitRate                89.12                       # Row buffer hit rate for writes
system.mem_ctrls.avgGap                   51835894.01                       # Average gap between requests
system.mem_ctrls.pageHitRate                    83.29                       # Row buffer hit rate, read and write combined
system.mem_ctrls_0.actEnergy                 14287140                       # Energy for activate commands per rank (pJ)
system.mem_ctrls_0.preEnergy                  7593795                       # Energy for precharge commands per rank (pJ)
system.mem_ctrls_0.readEnergy                13323240                       # Energy for read commands per rank (pJ)
system.mem_ctrls_0.writeEnergy               49819680                       # Energy for write commands per rank (pJ)
system.mem_ctrls_0.refreshEnergy         684708960.000000                       # Energy for refresh commands per rank (pJ)
system.mem_ctrls_0.actBackEnergy            301593270                       # Energy for active background per rank (pJ)
system.mem_ctrls_0.preBackEnergy             45904800                       # Energy for precharge background per rank (pJ)
system.mem_ctrls_0.actPowerDownEnergy      1264904100                       # Energy for active power-down per rank (pJ)
system.mem_ctrls_0.prePowerDownEnergy      1027368000                       # Energy for precharge power-down per rank (pJ)
system.mem_ctrls_0.selfRefreshEnergy     400561607580                       # Energy for self refresh per rank (pJ)
system.mem_ctrls_0.totalEnergy           403971110565                       # Total energy per rank (pJ)
system.mem_ctrls_0.averagePower            241.249531                       # Core power per rank (mW)
system.mem_ctrls_0.totalIdleTime         1389840338500                       # Total Idle time Per DRAM Rank
system.mem_ctrls_0.memoryStateTime::IDLE    101424250                       # Time in different power states
system.mem_ctrls_0.memoryStateTime::REF     291668000                       # Time in different power states
system.mem_ctrls_0.memoryStateTime::SREF 1668231265000                       # Time in different power states
system.mem_ctrls_0.memoryStateTime::PRE_PDN   2675437000                       # Time in different power states
system.mem_ctrls_0.memoryStateTime::ACT     395632250                       # Time in different power states
system.mem_ctrls_0.memoryStateTime::ACT_PDN   2773903000                       # Time in different power states
system.mem_ctrls_1.actEnergy                 17592960                       # Energy for activate commands per rank (pJ)
system.mem_ctrls_1.preEnergy                  9350880                       # Energy for precharge commands per rank (pJ)
system.mem_ctrls_1.readEnergy                17435880                       # Energy for read commands per rank (pJ)
system.mem_ctrls_1.writeEnergy               67583340                       # Energy for write commands per rank (pJ)
system.mem_ctrls_1.refreshEnergy         694543200.000000                       # Energy for refresh commands per rank (pJ)
system.mem_ctrls_1.actBackEnergy            340255230                       # Energy for active background per rank (pJ)
system.mem_ctrls_1.preBackEnergy             44477280                       # Energy for precharge background per rank (pJ)
system.mem_ctrls_1.actPowerDownEnergy      1324094040                       # Energy for active power-down per rank (pJ)
system.mem_ctrls_1.prePowerDownEnergy      1030420800                       # Energy for precharge power-down per rank (pJ)
system.mem_ctrls_1.selfRefreshEnergy     400501911660                       # Energy for self refresh per rank (pJ)
system.mem_ctrls_1.totalEnergy           404047665270                       # Total energy per rank (pJ)
system.mem_ctrls_1.averagePower            241.295249                       # Core power per rank (mW)
system.mem_ctrls_1.totalIdleTime         1213807032500                       # Total Idle time Per DRAM Rank
system.mem_ctrls_1.memoryStateTime::IDLE     96437750                       # Time in different power states
system.mem_ctrls_1.memoryStateTime::REF     295744000                       # Time in different power states
system.mem_ctrls_1.memoryStateTime::SREF 1668012431750                       # Time in different power states
system.mem_ctrls_1.memoryStateTime::PRE_PDN   2683373250                       # Time in different power states
system.mem_ctrls_1.memoryStateTime::ACT     477618750                       # Time in different power states
system.mem_ctrls_1.memoryStateTime::ACT_PDN   2903724000                       # Time in different power states
system.pwrStateResidencyTicks::UNDEFINED 6474666914500                       # Cumulative time (in ticks) in various power states
system.apicbridge.pwrStateResidencyTicks::UNDEFINED 6474666914500                       # Cumulative time (in ticks) in various power states
system.bridge.pwrStateResidencyTicks::UNDEFINED 6474666914500                       # Cumulative time (in ticks) in various power states
system.cpu_voltage_domain.voltage                   1                       # Voltage in Volts
system.cpu_clk_domain.clock                       500                       # Clock period in ticks
system.cpu0.dtb.walker.pwrStateResidencyTicks::UNDEFINED 6474666914500                       # Cumulative time (in ticks) in various power states
system.cpu0.dtb.rdAccesses                          0                       # TLB accesses on read requests
system.cpu0.dtb.wrAccesses                          0                       # TLB accesses on write requests
system.cpu0.dtb.rdMisses                            0                       # TLB misses on read requests
system.cpu0.dtb.wrMisses                            0                       # TLB misses on write requests
system.cpu0.apic_clk_domain.clock                8000                       # Clock period in ticks
system.cpu0.interrupts.pwrStateResidencyTicks::UNDEFINED 6474666914500                       # Cumulative time (in ticks) in various power states
system.cpu0.itb.walker.pwrStateResidencyTicks::UNDEFINED 6474666914500                       # Cumulative time (in ticks) in various power states
system.cpu0.itb.rdAccesses                          0                       # TLB accesses on read requests
system.cpu0.itb.wrAccesses                          0                       # TLB accesses on write requests
system.cpu0.itb.rdMisses                            0                       # TLB misses on read requests
system.cpu0.itb.wrMisses                            0                       # TLB misses on write requests
system.cpu0.pwrStateResidencyTicks::OFF  6474666912500                       # Cumulative time (in ticks) in various power states
system.cpu0.numCycles                               0                       # number of cpu cycles simulated
system.cpu0.numWorkItemsStarted                     0                       # number of work items this cpu started
system.cpu0.numWorkItemsCompleted                   0                       # number of work items this cpu completed
system.cpu0.kern.inst.arm                           0                       # number of arm instructions executed
system.cpu0.kern.inst.quiesce                       0                       # number of quiesce instructions executed
system.cpu0.committedInsts                          0                       # Number of instructions committed
system.cpu0.committedOps                            0                       # Number of ops (including micro ops) committed
system.cpu0.num_int_alu_accesses                    0                       # Number of integer alu accesses
system.cpu0.num_fp_alu_accesses                     0                       # Number of float alu accesses
system.cpu0.num_vec_alu_accesses                    0                       # Number of vector alu accesses
system.cpu0.num_func_calls                          0                       # number of times a function call or return occured
system.cpu0.num_conditional_control_insts            0                       # number of instructions that are conditional controls
system.cpu0.num_int_insts                           0                       # number of integer instructions
system.cpu0.num_fp_insts                            0                       # number of float instructions
system.cpu0.num_vec_insts                           0                       # number of vector instructions
system.cpu0.num_int_register_reads                  0                       # number of times the integer registers were read
system.cpu0.num_int_register_writes                 0                       # number of times the integer registers were written
system.cpu0.num_fp_register_reads                   0                       # number of times the floating registers were read
system.cpu0.num_fp_register_writes                  0                       # number of times the floating registers were written
system.cpu0.num_vec_register_reads                  0                       # number of times the vector registers were read
system.cpu0.num_vec_register_writes                 0                       # number of times the vector registers were written
system.cpu0.num_mem_refs                            0                       # number of memory refs
system.cpu0.num_load_insts                          0                       # Number of load instructions
system.cpu0.num_store_insts                         0                       # Number of store instructions
system.cpu0.num_idle_cycles                         0                       # Number of idle cycles
system.cpu0.num_busy_cycles                         0                       # Number of busy cycles
system.cpu0.not_idle_fraction                       1                       # Percentage of non-idle cycles
system.cpu0.idle_fraction                           0                       # Percentage of idle cycles
system.cpu0.op_class::No_OpClass                    0                       # Class of executed instruction
system.cpu0.op_class::IntAlu                        0                       # Class of executed instruction
system.cpu0.op_class::IntMult                       0                       # Class of executed instruction
system.cpu0.op_class::IntDiv                        0                       # Class of executed instruction
system.cpu0.op_class::FloatAdd                      0                       # Class of executed instruction
system.cpu0.op_class::FloatCmp                      0                       # Class of executed instruction
system.cpu0.op_class::FloatCvt                      0                       # Class of executed instruction
system.cpu0.op_class::FloatMult                     0                       # Class of executed instruction
system.cpu0.op_class::FloatMultAcc                  0                       # Class of executed instruction
system.cpu0.op_class::FloatDiv                      0                       # Class of executed instruction
system.cpu0.op_class::FloatMisc                     0                       # Class of executed instruction
system.cpu0.op_class::FloatSqrt                     0                       # Class of executed instruction
system.cpu0.op_class::SimdAdd                       0                       # Class of executed instruction
system.cpu0.op_class::SimdAddAcc                    0                       # Class of executed instruction
system.cpu0.op_class::SimdAlu                       0                       # Class of executed instruction
system.cpu0.op_class::SimdCmp                       0                       # Class of executed instruction
system.cpu0.op_class::SimdCvt                       0                       # Class of executed instruction
system.cpu0.op_class::SimdMisc                      0                       # Class of executed instruction
system.cpu0.op_class::SimdMult                      0                       # Class of executed instruction
system.cpu0.op_class::SimdMultAcc                   0                       # Class of executed instruction
system.cpu0.op_class::SimdShift                     0                       # Class of executed instruction
system.cpu0.op_class::SimdShiftAcc                  0                       # Class of executed instruction
system.cpu0.op_class::SimdSqrt                      0                       # Class of executed instruction
system.cpu0.op_class::SimdFloatAdd                  0                       # Class of executed instruction
system.cpu0.op_class::SimdFloatAlu                  0                       # Class of executed instruction
system.cpu0.op_class::SimdFloatCmp                  0                       # Class of executed instruction
system.cpu0.op_class::SimdFloatCvt                  0                       # Class of executed instruction
system.cpu0.op_class::SimdFloatDiv                  0                       # Class of executed instruction
system.cpu0.op_class::SimdFloatMisc                 0                       # Class of executed instruction
system.cpu0.op_class::SimdFloatMult                 0                       # Class of executed instruction
system.cpu0.op_class::SimdFloatMultAcc              0                       # Class of executed instruction
system.cpu0.op_class::SimdFloatSqrt                 0                       # Class of executed instruction
system.cpu0.op_class::MemRead                       0                       # Class of executed instruction
system.cpu0.op_class::MemWrite                      0                       # Class of executed instruction
system.cpu0.op_class::FloatMemRead                  0                       # Class of executed instruction
system.cpu0.op_class::FloatMemWrite                 0                       # Class of executed instruction
system.cpu0.op_class::IprAccess                     0                       # Class of executed instruction
system.cpu0.op_class::InstPrefetch                  0                       # Class of executed instruction
system.cpu0.op_class::total                         0                       # Class of executed instruction
system.cpu0.dcache.tags.pwrStateResidencyTicks::UNDEFINED 6474666914500                       # Cumulative time (in ticks) in various power states
system.cpu0.dcache.tags.replacements            19389                       # number of replacements
system.cpu0.dcache.tags.tagsinuse          925.753611                       # Cycle average of tags in use
system.cpu0.dcache.tags.total_refs            1064393                       # Total number of references to valid blocks.
system.cpu0.dcache.tags.sampled_refs            20372                       # Sample count of references to valid blocks.
system.cpu0.dcache.tags.avg_refs            52.247840                       # Average number of references to valid blocks.
system.cpu0.dcache.tags.warmup_cycle                0                       # Cycle when the warmup percentage was hit.
system.cpu0.dcache.tags.occ_blocks::switch_cpus0.data    29.855711                       # Average occupied blocks per requestor
system.cpu0.dcache.tags.occ_blocks::switch_cpus_10.data   895.897900                       # Average occupied blocks per requestor
system.cpu0.dcache.tags.occ_percent::switch_cpus0.data     0.029156                       # Average percentage of cache occupancy
system.cpu0.dcache.tags.occ_percent::switch_cpus_10.data     0.874900                       # Average percentage of cache occupancy
system.cpu0.dcache.tags.occ_percent::total     0.904056                       # Average percentage of cache occupancy
system.cpu0.dcache.tags.occ_task_id_blocks::1024          983                       # Occupied blocks per task id
system.cpu0.dcache.tags.age_task_id_blocks_1024::3            6                       # Occupied blocks per task id
system.cpu0.dcache.tags.age_task_id_blocks_1024::4          977                       # Occupied blocks per task id
system.cpu0.dcache.tags.occ_task_id_percent::1024     0.959961                       # Percentage of cache occupancy per task id
system.cpu0.dcache.tags.tag_accesses          2256691                       # Number of tag accesses
system.cpu0.dcache.tags.data_accesses         2256691                       # Number of data accesses
system.cpu0.dcache.pwrStateResidencyTicks::UNDEFINED 6474666914500                       # Cumulative time (in ticks) in various power states
system.cpu0.dcache.ReadReq_hits::switch_cpus0.data         6199                       # number of ReadReq hits
system.cpu0.dcache.ReadReq_hits::switch_cpus_10.data       662908                       # number of ReadReq hits
system.cpu0.dcache.ReadReq_hits::total         669107                       # number of ReadReq hits
system.cpu0.dcache.WriteReq_hits::switch_cpus0.data         3461                       # number of WriteReq hits
system.cpu0.dcache.WriteReq_hits::switch_cpus_10.data       412615                       # number of WriteReq hits
system.cpu0.dcache.WriteReq_hits::total        416076                       # number of WriteReq hits
system.cpu0.dcache.SoftPFReq_hits::switch_cpus0.data            6                       # number of SoftPFReq hits
system.cpu0.dcache.SoftPFReq_hits::switch_cpus_10.data          105                       # number of SoftPFReq hits
system.cpu0.dcache.SoftPFReq_hits::total          111                       # number of SoftPFReq hits
system.cpu0.dcache.demand_hits::switch_cpus0.data         9660                       # number of demand (read+write) hits
system.cpu0.dcache.demand_hits::switch_cpus_10.data      1075523                       # number of demand (read+write) hits
system.cpu0.dcache.demand_hits::total         1085183                       # number of demand (read+write) hits
system.cpu0.dcache.overall_hits::switch_cpus0.data         9666                       # number of overall hits
system.cpu0.dcache.overall_hits::switch_cpus_10.data      1075628                       # number of overall hits
system.cpu0.dcache.overall_hits::total        1085294                       # number of overall hits
system.cpu0.dcache.ReadReq_misses::switch_cpus0.data           80                       # number of ReadReq misses
system.cpu0.dcache.ReadReq_misses::switch_cpus_10.data        21405                       # number of ReadReq misses
system.cpu0.dcache.ReadReq_misses::total        21485                       # number of ReadReq misses
system.cpu0.dcache.WriteReq_misses::switch_cpus0.data           67                       # number of WriteReq misses
system.cpu0.dcache.WriteReq_misses::switch_cpus_10.data         8479                       # number of WriteReq misses
system.cpu0.dcache.WriteReq_misses::total         8546                       # number of WriteReq misses
system.cpu0.dcache.SoftPFReq_misses::switch_cpus_10.data          441                       # number of SoftPFReq misses
system.cpu0.dcache.SoftPFReq_misses::total          441                       # number of SoftPFReq misses
system.cpu0.dcache.demand_misses::switch_cpus0.data          147                       # number of demand (read+write) misses
system.cpu0.dcache.demand_misses::switch_cpus_10.data        29884                       # number of demand (read+write) misses
system.cpu0.dcache.demand_misses::total         30031                       # number of demand (read+write) misses
system.cpu0.dcache.overall_misses::switch_cpus0.data          147                       # number of overall misses
system.cpu0.dcache.overall_misses::switch_cpus_10.data        30325                       # number of overall misses
system.cpu0.dcache.overall_misses::total        30472                       # number of overall misses
system.cpu0.dcache.ReadReq_miss_latency::switch_cpus_10.data    243420000                       # number of ReadReq miss cycles
system.cpu0.dcache.ReadReq_miss_latency::total    243420000                       # number of ReadReq miss cycles
system.cpu0.dcache.WriteReq_miss_latency::switch_cpus_10.data    140362000                       # number of WriteReq miss cycles
system.cpu0.dcache.WriteReq_miss_latency::total    140362000                       # number of WriteReq miss cycles
system.cpu0.dcache.demand_miss_latency::switch_cpus_10.data    383782000                       # number of demand (read+write) miss cycles
system.cpu0.dcache.demand_miss_latency::total    383782000                       # number of demand (read+write) miss cycles
system.cpu0.dcache.overall_miss_latency::switch_cpus_10.data    383782000                       # number of overall miss cycles
system.cpu0.dcache.overall_miss_latency::total    383782000                       # number of overall miss cycles
system.cpu0.dcache.ReadReq_accesses::switch_cpus0.data         6279                       # number of ReadReq accesses(hits+misses)
system.cpu0.dcache.ReadReq_accesses::switch_cpus_10.data       684313                       # number of ReadReq accesses(hits+misses)
system.cpu0.dcache.ReadReq_accesses::total       690592                       # number of ReadReq accesses(hits+misses)
system.cpu0.dcache.WriteReq_accesses::switch_cpus0.data         3528                       # number of WriteReq accesses(hits+misses)
system.cpu0.dcache.WriteReq_accesses::switch_cpus_10.data       421094                       # number of WriteReq accesses(hits+misses)
system.cpu0.dcache.WriteReq_accesses::total       424622                       # number of WriteReq accesses(hits+misses)
system.cpu0.dcache.SoftPFReq_accesses::switch_cpus0.data            6                       # number of SoftPFReq accesses(hits+misses)
system.cpu0.dcache.SoftPFReq_accesses::switch_cpus_10.data          546                       # number of SoftPFReq accesses(hits+misses)
system.cpu0.dcache.SoftPFReq_accesses::total          552                       # number of SoftPFReq accesses(hits+misses)
system.cpu0.dcache.demand_accesses::switch_cpus0.data         9807                       # number of demand (read+write) accesses
system.cpu0.dcache.demand_accesses::switch_cpus_10.data      1105407                       # number of demand (read+write) accesses
system.cpu0.dcache.demand_accesses::total      1115214                       # number of demand (read+write) accesses
system.cpu0.dcache.overall_accesses::switch_cpus0.data         9813                       # number of overall (read+write) accesses
system.cpu0.dcache.overall_accesses::switch_cpus_10.data      1105953                       # number of overall (read+write) accesses
system.cpu0.dcache.overall_accesses::total      1115766                       # number of overall (read+write) accesses
system.cpu0.dcache.ReadReq_miss_rate::switch_cpus0.data     0.012741                       # miss rate for ReadReq accesses
system.cpu0.dcache.ReadReq_miss_rate::switch_cpus_10.data     0.031280                       # miss rate for ReadReq accesses
system.cpu0.dcache.ReadReq_miss_rate::total     0.031111                       # miss rate for ReadReq accesses
system.cpu0.dcache.WriteReq_miss_rate::switch_cpus0.data     0.018991                       # miss rate for WriteReq accesses
system.cpu0.dcache.WriteReq_miss_rate::switch_cpus_10.data     0.020136                       # miss rate for WriteReq accesses
system.cpu0.dcache.WriteReq_miss_rate::total     0.020126                       # miss rate for WriteReq accesses
system.cpu0.dcache.SoftPFReq_miss_rate::switch_cpus_10.data     0.807692                       # miss rate for SoftPFReq accesses
system.cpu0.dcache.SoftPFReq_miss_rate::total     0.798913                       # miss rate for SoftPFReq accesses
system.cpu0.dcache.demand_miss_rate::switch_cpus0.data     0.014989                       # miss rate for demand accesses
system.cpu0.dcache.demand_miss_rate::switch_cpus_10.data     0.027034                       # miss rate for demand accesses
system.cpu0.dcache.demand_miss_rate::total     0.026928                       # miss rate for demand accesses
system.cpu0.dcache.overall_miss_rate::switch_cpus0.data     0.014980                       # miss rate for overall accesses
system.cpu0.dcache.overall_miss_rate::switch_cpus_10.data     0.027420                       # miss rate for overall accesses
system.cpu0.dcache.overall_miss_rate::total     0.027310                       # miss rate for overall accesses
system.cpu0.dcache.ReadReq_avg_miss_latency::switch_cpus_10.data 11372.109320                       # average ReadReq miss latency
system.cpu0.dcache.ReadReq_avg_miss_latency::total 11329.764952                       # average ReadReq miss latency
system.cpu0.dcache.WriteReq_avg_miss_latency::switch_cpus_10.data 16554.074773                       # average WriteReq miss latency
system.cpu0.dcache.WriteReq_avg_miss_latency::total 16424.292066                       # average WriteReq miss latency
system.cpu0.dcache.demand_avg_miss_latency::switch_cpus_10.data 12842.390577                       # average overall miss latency
system.cpu0.dcache.demand_avg_miss_latency::total 12779.527821                       # average overall miss latency
system.cpu0.dcache.overall_avg_miss_latency::switch_cpus_10.data 12655.630668                       # average overall miss latency
system.cpu0.dcache.overall_avg_miss_latency::total 12594.578630                       # average overall miss latency
system.cpu0.dcache.blocked_cycles::no_mshrs            0                       # number of cycles access was blocked
system.cpu0.dcache.blocked_cycles::no_targets            0                       # number of cycles access was blocked
system.cpu0.dcache.blocked::no_mshrs                0                       # number of cycles access was blocked
system.cpu0.dcache.blocked::no_targets              0                       # number of cycles access was blocked
system.cpu0.dcache.avg_blocked_cycles::no_mshrs          nan                       # average number of cycles each access was blocked
system.cpu0.dcache.avg_blocked_cycles::no_targets          nan                       # average number of cycles each access was blocked
system.cpu0.dcache.writebacks::writebacks         8828                       # number of writebacks
system.cpu0.dcache.writebacks::total             8828                       # number of writebacks
system.cpu0.dcache.WriteReq_mshr_hits::switch_cpus_10.data            5                       # number of WriteReq MSHR hits
system.cpu0.dcache.WriteReq_mshr_hits::total            5                       # number of WriteReq MSHR hits
system.cpu0.dcache.demand_mshr_hits::switch_cpus_10.data            5                       # number of demand (read+write) MSHR hits
system.cpu0.dcache.demand_mshr_hits::total            5                       # number of demand (read+write) MSHR hits
system.cpu0.dcache.overall_mshr_hits::switch_cpus_10.data            5                       # number of overall MSHR hits
system.cpu0.dcache.overall_mshr_hits::total            5                       # number of overall MSHR hits
system.cpu0.dcache.ReadReq_mshr_misses::switch_cpus_10.data        21405                       # number of ReadReq MSHR misses
system.cpu0.dcache.ReadReq_mshr_misses::total        21405                       # number of ReadReq MSHR misses
system.cpu0.dcache.WriteReq_mshr_misses::switch_cpus_10.data         8474                       # number of WriteReq MSHR misses
system.cpu0.dcache.WriteReq_mshr_misses::total         8474                       # number of WriteReq MSHR misses
system.cpu0.dcache.SoftPFReq_mshr_misses::switch_cpus_10.data          441                       # number of SoftPFReq MSHR misses
system.cpu0.dcache.SoftPFReq_mshr_misses::total          441                       # number of SoftPFReq MSHR misses
system.cpu0.dcache.demand_mshr_misses::switch_cpus_10.data        29879                       # number of demand (read+write) MSHR misses
system.cpu0.dcache.demand_mshr_misses::total        29879                       # number of demand (read+write) MSHR misses
system.cpu0.dcache.overall_mshr_misses::switch_cpus_10.data        30320                       # number of overall MSHR misses
system.cpu0.dcache.overall_mshr_misses::total        30320                       # number of overall MSHR misses
system.cpu0.dcache.ReadReq_mshr_uncacheable::switch_cpus_10.data           23                       # number of ReadReq MSHR uncacheable
system.cpu0.dcache.ReadReq_mshr_uncacheable::total           23                       # number of ReadReq MSHR uncacheable
system.cpu0.dcache.WriteReq_mshr_uncacheable::switch_cpus_10.data          471                       # number of WriteReq MSHR uncacheable
system.cpu0.dcache.WriteReq_mshr_uncacheable::total          471                       # number of WriteReq MSHR uncacheable
system.cpu0.dcache.overall_mshr_uncacheable_misses::switch_cpus_10.data          494                       # number of overall MSHR uncacheable misses
system.cpu0.dcache.overall_mshr_uncacheable_misses::total          494                       # number of overall MSHR uncacheable misses
system.cpu0.dcache.ReadReq_mshr_miss_latency::switch_cpus_10.data    222015000                       # number of ReadReq MSHR miss cycles
system.cpu0.dcache.ReadReq_mshr_miss_latency::total    222015000                       # number of ReadReq MSHR miss cycles
system.cpu0.dcache.WriteReq_mshr_miss_latency::switch_cpus_10.data    131264500                       # number of WriteReq MSHR miss cycles
system.cpu0.dcache.WriteReq_mshr_miss_latency::total    131264500                       # number of WriteReq MSHR miss cycles
system.cpu0.dcache.SoftPFReq_mshr_miss_latency::switch_cpus_10.data      4230000                       # number of SoftPFReq MSHR miss cycles
system.cpu0.dcache.SoftPFReq_mshr_miss_latency::total      4230000                       # number of SoftPFReq MSHR miss cycles
system.cpu0.dcache.demand_mshr_miss_latency::switch_cpus_10.data    353279500                       # number of demand (read+write) MSHR miss cycles
system.cpu0.dcache.demand_mshr_miss_latency::total    353279500                       # number of demand (read+write) MSHR miss cycles
system.cpu0.dcache.overall_mshr_miss_latency::switch_cpus_10.data    357509500                       # number of overall MSHR miss cycles
system.cpu0.dcache.overall_mshr_miss_latency::total    357509500                       # number of overall MSHR miss cycles
system.cpu0.dcache.ReadReq_mshr_uncacheable_latency::switch_cpus_10.data      3787000                       # number of ReadReq MSHR uncacheable cycles
system.cpu0.dcache.ReadReq_mshr_uncacheable_latency::total      3787000                       # number of ReadReq MSHR uncacheable cycles
system.cpu0.dcache.overall_mshr_uncacheable_latency::switch_cpus_10.data      3787000                       # number of overall MSHR uncacheable cycles
system.cpu0.dcache.overall_mshr_uncacheable_latency::total      3787000                       # number of overall MSHR uncacheable cycles
system.cpu0.dcache.ReadReq_mshr_miss_rate::switch_cpus_10.data     0.031280                       # mshr miss rate for ReadReq accesses
system.cpu0.dcache.ReadReq_mshr_miss_rate::total     0.030995                       # mshr miss rate for ReadReq accesses
system.cpu0.dcache.WriteReq_mshr_miss_rate::switch_cpus_10.data     0.020124                       # mshr miss rate for WriteReq accesses
system.cpu0.dcache.WriteReq_mshr_miss_rate::total     0.019957                       # mshr miss rate for WriteReq accesses
system.cpu0.dcache.SoftPFReq_mshr_miss_rate::switch_cpus_10.data     0.807692                       # mshr miss rate for SoftPFReq accesses
system.cpu0.dcache.SoftPFReq_mshr_miss_rate::total     0.798913                       # mshr miss rate for SoftPFReq accesses
system.cpu0.dcache.demand_mshr_miss_rate::switch_cpus_10.data     0.027030                       # mshr miss rate for demand accesses
system.cpu0.dcache.demand_mshr_miss_rate::total     0.026792                       # mshr miss rate for demand accesses
system.cpu0.dcache.overall_mshr_miss_rate::switch_cpus_10.data     0.027415                       # mshr miss rate for overall accesses
system.cpu0.dcache.overall_mshr_miss_rate::total     0.027174                       # mshr miss rate for overall accesses
system.cpu0.dcache.ReadReq_avg_mshr_miss_latency::switch_cpus_10.data 10372.109320                       # average ReadReq mshr miss latency
system.cpu0.dcache.ReadReq_avg_mshr_miss_latency::total 10372.109320                       # average ReadReq mshr miss latency
system.cpu0.dcache.WriteReq_avg_mshr_miss_latency::switch_cpus_10.data 15490.264338                       # average WriteReq mshr miss latency
system.cpu0.dcache.WriteReq_avg_mshr_miss_latency::total 15490.264338                       # average WriteReq mshr miss latency
system.cpu0.dcache.SoftPFReq_avg_mshr_miss_latency::switch_cpus_10.data  9591.836735                       # average SoftPFReq mshr miss latency
system.cpu0.dcache.SoftPFReq_avg_mshr_miss_latency::total  9591.836735                       # average SoftPFReq mshr miss latency
system.cpu0.dcache.demand_avg_mshr_miss_latency::switch_cpus_10.data 11823.672144                       # average overall mshr miss latency
system.cpu0.dcache.demand_avg_mshr_miss_latency::total 11823.672144                       # average overall mshr miss latency
system.cpu0.dcache.overall_avg_mshr_miss_latency::switch_cpus_10.data 11791.210422                       # average overall mshr miss latency
system.cpu0.dcache.overall_avg_mshr_miss_latency::total 11791.210422                       # average overall mshr miss latency
system.cpu0.dcache.ReadReq_avg_mshr_uncacheable_latency::switch_cpus_10.data 164652.173913                       # average ReadReq mshr uncacheable latency
system.cpu0.dcache.ReadReq_avg_mshr_uncacheable_latency::total 164652.173913                       # average ReadReq mshr uncacheable latency
system.cpu0.dcache.overall_avg_mshr_uncacheable_latency::switch_cpus_10.data  7665.991903                       # average overall mshr uncacheable latency
system.cpu0.dcache.overall_avg_mshr_uncacheable_latency::total  7665.991903                       # average overall mshr uncacheable latency
system.cpu0.dtb_walker_cache.tags.pwrStateResidencyTicks::UNDEFINED 6474666914500                       # Cumulative time (in ticks) in various power states
system.cpu0.dtb_walker_cache.tags.replacements          305                       # number of replacements
[...]
system.tol2bus.pkt_count_system.cpu4.icache.mem_side::system.l2.cpu_side        39420                       # Packet count per connected master and slave (bytes)
system.tol2bus.pkt_count_system.cpu4.dcache.mem_side::system.l2.cpu_side        53154                       # Packet count per connected master and slave (bytes)
system.tol2bus.pkt_count_system.cpu4.itb_walker_cache.mem_side::system.l2.cpu_side           35                       # Packet count per connected master and slave (bytes)
system.tol2bus.pkt_count_system.cpu4.dtb_walker_cache.mem_side::system.l2.cpu_side          251                       # Packet count per connected master and slave (bytes)
system.tol2bus.pkt_count_system.cpu5.icache.mem_side::system.l2.cpu_side        34077                       # Packet count per connected master and slave (bytes)
system.tol2bus.pkt_count_system.cpu5.dcache.mem_side::system.l2.cpu_side        47619                       # Packet count per connected master and slave (bytes)
system.tol2bus.pkt_count_system.cpu5.itb_walker_cache.mem_side::system.l2.cpu_side           38                       # Packet count per connected master and slave (bytes)
system.tol2bus.pkt_count_system.cpu5.dtb_walker_cache.mem_side::system.l2.cpu_side          233                       # Packet count per connected master and slave (bytes)
system.tol2bus.pkt_count_system.cpu6.icache.mem_side::system.l2.cpu_side        21945                       # Packet count per connected master and slave (bytes)
system.tol2bus.pkt_count_system.cpu6.dcache.mem_side::system.l2.cpu_side        12850                       # Packet count per connected master and slave (bytes)
system.tol2bus.pkt_count_system.cpu6.itb_walker_cache.mem_side::system.l2.cpu_side          138                       # Packet count per connected master and slave (bytes)
system.tol2bus.pkt_count_system.cpu6.dtb_walker_cache.mem_side::system.l2.cpu_side          282                       # Packet count per connected master and slave (bytes)
system.tol2bus.pkt_count_system.cpu7.icache.mem_side::system.l2.cpu_side        34113                       # Packet count per connected master and slave (bytes)
system.tol2bus.pkt_count_system.cpu7.dcache.mem_side::system.l2.cpu_side        49288                       # Packet count per connected master and slave (bytes)
system.tol2bus.pkt_count_system.cpu7.itb_walker_cache.mem_side::system.l2.cpu_side           30                       # Packet count per connected master and slave (bytes)
system.tol2bus.pkt_count_system.cpu7.dtb_walker_cache.mem_side::system.l2.cpu_side          230                       # Packet count per connected master and slave (bytes)
system.tol2bus.pkt_count::total                691993                       # Packet count per connected master and slave (bytes)
system.tol2bus.pkt_size_system.cpu0.icache.mem_side::system.l2.cpu_side      2600064                       # Cumulative packet size per connected master and slave (bytes)
system.tol2bus.pkt_size_system.cpu0.dcache.mem_side::system.l2.cpu_side      1354180                       # Cumulative packet size per connected master and slave (bytes)
system.tol2bus.pkt_size_system.cpu0.itb_walker_cache.mem_side::system.l2.cpu_side         9536                       # Cumulative packet size per connected master and slave (bytes)
system.tol2bus.pkt_size_system.cpu0.dtb_walker_cache.mem_side::system.l2.cpu_side        14336                       # Cumulative packet size per connected master and slave (bytes)
system.tol2bus.pkt_size_system.cpu1.icache.mem_side::system.l2.cpu_side      1551616                       # Cumulative packet size per connected master and slave (bytes)
system.tol2bus.pkt_size_system.cpu1.dcache.mem_side::system.l2.cpu_side       953704                       # Cumulative packet size per connected master and slave (bytes)
system.tol2bus.pkt_size_system.cpu1.itb_walker_cache.mem_side::system.l2.cpu_side         3520                       # Cumulative packet size per connected master and slave (bytes)
system.tol2bus.pkt_size_system.cpu1.dtb_walker_cache.mem_side::system.l2.cpu_side         8064                       # Cumulative packet size per connected master and slave (bytes)
system.tol2bus.pkt_size_system.cpu2.icache.mem_side::system.l2.cpu_side      1564032                       # Cumulative packet size per connected master and slave (bytes)
system.tol2bus.pkt_size_system.cpu2.dcache.mem_side::system.l2.cpu_side       920156                       # Cumulative packet size per connected master and slave (bytes)
system.tol2bus.pkt_size_system.cpu2.itb_walker_cache.mem_side::system.l2.cpu_side          512                       # Cumulative packet size per connected master and slave (bytes)
system.tol2bus.pkt_size_system.cpu2.dtb_walker_cache.mem_side::system.l2.cpu_side         4608                       # Cumulative packet size per connected master and slave (bytes)
system.tol2bus.pkt_size_system.cpu3.icache.mem_side::system.l2.cpu_side      1525760                       # Cumulative packet size per connected master and slave (bytes)
system.tol2bus.pkt_size_system.cpu3.dcache.mem_side::system.l2.cpu_side       949840                       # Cumulative packet size per connected master and slave (bytes)
system.tol2bus.pkt_size_system.cpu3.itb_walker_cache.mem_side::system.l2.cpu_side          384                       # Cumulative packet size per connected master and slave (bytes)
system.tol2bus.pkt_size_system.cpu3.dtb_walker_cache.mem_side::system.l2.cpu_side         5056                       # Cumulative packet size per connected master and slave (bytes)
system.tol2bus.pkt_size_system.cpu4.icache.mem_side::system.l2.cpu_side      1681920                       # Cumulative packet size per connected master and slave (bytes)
system.tol2bus.pkt_size_system.cpu4.dcache.mem_side::system.l2.cpu_side       901122                       # Cumulative packet size per connected master and slave (bytes)
system.tol2bus.pkt_size_system.cpu4.itb_walker_cache.mem_side::system.l2.cpu_side          384                       # Cumulative packet size per connected master and slave (bytes)
system.tol2bus.pkt_size_system.cpu4.dtb_walker_cache.mem_side::system.l2.cpu_side         4608                       # Cumulative packet size per connected master and slave (bytes)
system.tol2bus.pkt_size_system.cpu5.icache.mem_side::system.l2.cpu_side      1453952                       # Cumulative packet size per connected master and slave (bytes)
system.tol2bus.pkt_size_system.cpu5.dcache.mem_side::system.l2.cpu_side       824806                       # Cumulative packet size per connected master and slave (bytes)
system.tol2bus.pkt_size_system.cpu5.itb_walker_cache.mem_side::system.l2.cpu_side          192                       # Cumulative packet size per connected master and slave (bytes)
system.tol2bus.pkt_size_system.cpu5.dtb_walker_cache.mem_side::system.l2.cpu_side         4224                       # Cumulative packet size per connected master and slave (bytes)
system.tol2bus.pkt_size_system.cpu6.icache.mem_side::system.l2.cpu_side       936320                       # Cumulative packet size per connected master and slave (bytes)
system.tol2bus.pkt_size_system.cpu6.dcache.mem_side::system.l2.cpu_side       180970                       # Cumulative packet size per connected master and slave (bytes)
system.tol2bus.pkt_size_system.cpu6.itb_walker_cache.mem_side::system.l2.cpu_side         1472                       # Cumulative packet size per connected master and slave (bytes)
system.tol2bus.pkt_size_system.cpu6.dtb_walker_cache.mem_side::system.l2.cpu_side         5184                       # Cumulative packet size per connected master and slave (bytes)
system.tol2bus.pkt_size_system.cpu7.icache.mem_side::system.l2.cpu_side      1455488                       # Cumulative packet size per connected master and slave (bytes)
system.tol2bus.pkt_size_system.cpu7.dcache.mem_side::system.l2.cpu_side       846140                       # Cumulative packet size per connected master and slave (bytes)
system.tol2bus.pkt_size_system.cpu7.itb_walker_cache.mem_side::system.l2.cpu_side          128                       # Cumulative packet size per connected master and slave (bytes)
system.tol2bus.pkt_size_system.cpu7.dtb_walker_cache.mem_side::system.l2.cpu_side         4672                       # Cumulative packet size per connected master and slave (bytes)
system.tol2bus.pkt_size::total               19766950                       # Cumulative packet size per connected master and slave (bytes)
system.tol2bus.snoops                          122223                       # Total snoops (count)
system.tol2bus.snoopTraffic                   6665216                       # Total snoop traffic (bytes)
system.tol2bus.snoop_fanout::samples           304727                       # Request fanout histogram
system.tol2bus.snoop_fanout::mean            2.784850                       # Request fanout histogram
system.tol2bus.snoop_fanout::stdev           2.814191                       # Request fanout histogram
system.tol2bus.snoop_fanout::underflows             0      0.00%      0.00% # Request fanout histogram
system.tol2bus.snoop_fanout::0                  74336     24.39%     24.39% # Request fanout histogram
system.tol2bus.snoop_fanout::1                  86234     28.30%     52.69% # Request fanout histogram
system.tol2bus.snoop_fanout::2                  32854     10.78%     63.47% # Request fanout histogram
system.tol2bus.snoop_fanout::3                   8158      2.68%     66.15% # Request fanout histogram
system.tol2bus.snoop_fanout::4                   6107      2.00%     68.16% # Request fanout histogram
system.tol2bus.snoop_fanout::5                   4550      1.49%     69.65% # Request fanout histogram
system.tol2bus.snoop_fanout::6                  26132      8.58%     78.22% # Request fanout histogram
system.tol2bus.snoop_fanout::7                  65755     21.58%     99.80% # Request fanout histogram
system.tol2bus.snoop_fanout::8                     63      0.02%     99.82% # Request fanout histogram
system.tol2bus.snoop_fanout::9                     21      0.01%     99.83% # Request fanout histogram
system.tol2bus.snoop_fanout::10                    92      0.03%     99.86% # Request fanout histogram
system.tol2bus.snoop_fanout::11                    20      0.01%     99.87% # Request fanout histogram
system.tol2bus.snoop_fanout::12                    39      0.01%     99.88% # Request fanout histogram
system.tol2bus.snoop_fanout::13                    65      0.02%     99.90% # Request fanout histogram
system.tol2bus.snoop_fanout::14                    77      0.03%     99.93% # Request fanout histogram
system.tol2bus.snoop_fanout::15                    76      0.02%     99.95% # Request fanout histogram
system.tol2bus.snoop_fanout::16                    14      0.00%     99.96% # Request fanout histogram
system.tol2bus.snoop_fanout::17                    52      0.02%     99.97% # Request fanout histogram
system.tol2bus.snoop_fanout::18                    82      0.03%    100.00% # Request fanout histogram
system.tol2bus.snoop_fanout::19                     0      0.00%    100.00% # Request fanout histogram
system.tol2bus.snoop_fanout::20                     0      0.00%    100.00% # Request fanout histogram
system.tol2bus.snoop_fanout::21                     0      0.00%    100.00% # Request fanout histogram
system.tol2bus.snoop_fanout::22                     0      0.00%    100.00% # Request fanout histogram
system.tol2bus.snoop_fanout::23                     0      0.00%    100.00% # Request fanout histogram
system.tol2bus.snoop_fanout::24                     0      0.00%    100.00% # Request fanout histogram
system.tol2bus.snoop_fanout::25                     0      0.00%    100.00% # Request fanout histogram
system.tol2bus.snoop_fanout::26                     0      0.00%    100.00% # Request fanout histogram
system.tol2bus.snoop_fanout::27                     0      0.00%    100.00% # Request fanout histogram
system.tol2bus.snoop_fanout::28                     0      0.00%    100.00% # Request fanout histogram
system.tol2bus.snoop_fanout::29                     0      0.00%    100.00% # Request fanout histogram
system.tol2bus.snoop_fanout::30                     0      0.00%    100.00% # Request fanout histogram
system.tol2bus.snoop_fanout::31                     0      0.00%    100.00% # Request fanout histogram
system.tol2bus.snoop_fanout::32                     0      0.00%    100.00% # Request fanout histogram
system.tol2bus.snoop_fanout::overflows              0      0.00%    100.00% # Request fanout histogram
system.tol2bus.snoop_fanout::min_value              0                       # Request fanout histogram
system.tol2bus.snoop_fanout::max_value             18                       # Request fanout histogram
system.tol2bus.snoop_fanout::total             304727                       # Request fanout histogram
system.tol2bus.reqLayer0.occupancy          397242000                       # Layer occupancy (ticks)
system.tol2bus.reqLayer0.utilization              0.0                       # Layer utilization (%)
system.tol2bus.snoopLayer0.occupancy           223476                       # Layer occupancy (ticks)
system.tol2bus.snoopLayer0.utilization            0.0                       # Layer utilization (%)
system.tol2bus.respLayer0.occupancy          30157993                       # Layer occupancy (ticks)
system.tol2bus.respLayer0.utilization             0.0                       # Layer utilization (%)
system.tol2bus.respLayer1.occupancy          40461496                       # Layer occupancy (ticks)
system.tol2bus.respLayer1.utilization             0.0                       # Layer utilization (%)
system.tol2bus.respLayer2.occupancy            409500                       # Layer occupancy (ticks)
system.tol2bus.respLayer2.utilization             0.0                       # Layer utilization (%)
system.tol2bus.respLayer3.occupancy            507000                       # Layer occupancy (ticks)
system.tol2bus.respLayer3.utilization             0.0                       # Layer utilization (%)
system.tol2bus.respLayer4.occupancy          18185994                       # Layer occupancy (ticks)
system.tol2bus.respLayer4.utilization             0.0                       # Layer utilization (%)
system.tol2bus.respLayer5.occupancy          34383497                       # Layer occupancy (ticks)
system.tol2bus.respLayer5.utilization             0.0                       # Layer utilization (%)
system.tol2bus.respLayer6.occupancy            291000                       # Layer occupancy (ticks)
system.tol2bus.respLayer6.utilization             0.0                       # Layer utilization (%)
system.tol2bus.respLayer7.occupancy            319500                       # Layer occupancy (ticks)
system.tol2bus.respLayer7.utilization             0.0                       # Layer utilization (%)
system.tol2bus.respLayer8.occupancy          18328500                       # Layer occupancy (ticks)
system.tol2bus.respLayer8.utilization             0.0                       # Layer utilization (%)
system.tol2bus.respLayer9.occupancy          37231000                       # Layer occupancy (ticks)
system.tol2bus.respLayer9.utilization             0.0                       # Layer utilization (%)
system.tol2bus.respLayer10.occupancy            46500                       # Layer occupancy (ticks)
system.tol2bus.respLayer10.utilization            0.0                       # Layer utilization (%)
system.tol2bus.respLayer11.occupancy           148500                       # Layer occupancy (ticks)
system.tol2bus.respLayer11.utilization            0.0                       # Layer utilization (%)
system.tol2bus.respLayer12.occupancy         17880998                       # Layer occupancy (ticks)
system.tol2bus.respLayer12.utilization            0.0                       # Layer utilization (%)
system.tol2bus.respLayer13.occupancy         38081000                       # Layer occupancy (ticks)
system.tol2bus.respLayer13.utilization            0.0                       # Layer utilization (%)
system.tol2bus.respLayer14.occupancy            33000                       # Layer occupancy (ticks)
system.tol2bus.respLayer14.utilization            0.0                       # Layer utilization (%)
system.tol2bus.respLayer15.occupancy           168000                       # Layer occupancy (ticks)
system.tol2bus.respLayer15.utilization            0.0                       # Layer utilization (%)
system.tol2bus.respLayer16.occupancy         19710998                       # Layer occupancy (ticks)
system.tol2bus.respLayer16.utilization            0.0                       # Layer utilization (%)
system.tol2bus.respLayer17.occupancy         37182999                       # Layer occupancy (ticks)
system.tol2bus.respLayer17.utilization            0.0                       # Layer utilization (%)
system.tol2bus.respLayer18.occupancy            27000                       # Layer occupancy (ticks)
system.tol2bus.respLayer18.utilization            0.0                       # Layer utilization (%)
system.tol2bus.respLayer19.occupancy           148500                       # Layer occupancy (ticks)
system.tol2bus.respLayer19.utilization            0.0                       # Layer utilization (%)
system.tol2bus.respLayer20.occupancy         17038999                       # Layer occupancy (ticks)
system.tol2bus.respLayer20.utilization            0.0                       # Layer utilization (%)
system.tol2bus.respLayer21.occupancy         33088499                       # Layer occupancy (ticks)
system.tol2bus.respLayer21.utilization            0.0                       # Layer utilization (%)
system.tol2bus.respLayer22.occupancy            33000                       # Layer occupancy (ticks)
system.tol2bus.respLayer22.utilization            0.0                       # Layer utilization (%)
system.tol2bus.respLayer23.occupancy           138000                       # Layer occupancy (ticks)
system.tol2bus.respLayer23.utilization            0.0                       # Layer utilization (%)
system.tol2bus.respLayer24.occupancy         10973498                       # Layer occupancy (ticks)
system.tol2bus.respLayer24.utilization            0.0                       # Layer utilization (%)
system.tol2bus.respLayer25.occupancy         10207999                       # Layer occupancy (ticks)
system.tol2bus.respLayer25.utilization            0.0                       # Layer utilization (%)
system.tol2bus.respLayer26.occupancy            90000                       # Layer occupancy (ticks)
system.tol2bus.respLayer26.utilization            0.0                       # Layer utilization (%)
system.tol2bus.respLayer27.occupancy           162000                       # Layer occupancy (ticks)
system.tol2bus.respLayer27.utilization            0.0                       # Layer utilization (%)
system.tol2bus.respLayer28.occupancy         17057498                       # Layer occupancy (ticks)
system.tol2bus.respLayer28.utilization            0.0                       # Layer utilization (%)
system.tol2bus.respLayer29.occupancy         34507500                       # Layer occupancy (ticks)
system.tol2bus.respLayer29.utilization            0.0                       # Layer utilization (%)
system.tol2bus.respLayer30.occupancy            27000                       # Layer occupancy (ticks)
system.tol2bus.respLayer30.utilization            0.0                       # Layer utilization (%)
system.tol2bus.respLayer31.occupancy           132000                       # Layer occupancy (ticks)
system.tol2bus.respLayer31.utilization            0.0                       # Layer utilization (%)

---------- End Simulation Statistics   ----------
