
---------- Begin Simulation Statistics ----------
sim_seconds                                  0.079005                       # Number of seconds simulated
sim_ticks                                 79004571000                       # Number of ticks simulated
final_tick                                79004571000                       # Number of ticks from beginning of simulation (restored from checkpoints and never reset)
sim_freq                                 1000000000000                       # Frequency of simulated ticks
host_inst_rate                                  44224                       # Simulator instruction rate (inst/s)
host_op_rate                                    51273                       # Simulator op (including micro ops) rate (op/s)
host_tick_rate                               17617108                       # Simulator tick rate (ticks/s)
host_mem_usage                                 677616                       # Number of bytes of host memory used
host_seconds                                  4484.54                       # Real time elapsed on the host
sim_insts                                   198322379                       # Number of instructions simulated
sim_ops                                     229933772                       # Number of ops (including micro ops) simulated
system.voltage_domain.voltage                       1                       # Voltage in Volts
system.clk_domain.clock                          1000                       # Clock period in ticks
system.mem_ctrls.pwrStateResidencyTicks::UNDEFINED  79004571000                       # Cumulative time (in ticks) in various power states
system.mem_ctrls.bytes_read::cpu.inst         1154560                       # Number of bytes read from this memory
system.mem_ctrls.bytes_read::cpu.data         2471360                       # Number of bytes read from this memory
system.mem_ctrls.bytes_read::l2.prefetcher      3614272                       # Number of bytes read from this memory
system.mem_ctrls.bytes_read::total            7240192                       # Number of bytes read from this memory
system.mem_ctrls.bytes_inst_read::cpu.inst      1154560                       # Number of instructions bytes read from this memory
system.mem_ctrls.bytes_inst_read::total       1154560                       # Number of instructions bytes read from this memory
system.mem_ctrls.bytes_written::writebacks      2916864                       # Number of bytes written to this memory
system.mem_ctrls.bytes_written::total         2916864                       # Number of bytes written to this memory
system.mem_ctrls.num_reads::cpu.inst            18040                       # Number of read requests responded to by this memory
system.mem_ctrls.num_reads::cpu.data            38615                       # Number of read requests responded to by this memory
system.mem_ctrls.num_reads::l2.prefetcher        56473                       # Number of read requests responded to by this memory
system.mem_ctrls.num_reads::total              113128                       # Number of read requests responded to by this memory
system.mem_ctrls.num_writes::writebacks         45576                       # Number of write requests responded to by this memory
system.mem_ctrls.num_writes::total              45576                       # Number of write requests responded to by this memory
system.mem_ctrls.bw_read::cpu.inst           14613838                       # Total read bandwidth from this memory (bytes/s)
system.mem_ctrls.bw_read::cpu.data           31281228                       # Total read bandwidth from this memory (bytes/s)
system.mem_ctrls.bw_read::l2.prefetcher      45747631                       # Total read bandwidth from this memory (bytes/s)
system.mem_ctrls.bw_read::total              91642697                       # Total read bandwidth from this memory (bytes/s)
system.mem_ctrls.bw_inst_read::cpu.inst      14613838                       # Instruction read bandwidth from this memory (bytes/s)
system.mem_ctrls.bw_inst_read::total         14613838                       # Instruction read bandwidth from this memory (bytes/s)
system.mem_ctrls.bw_write::writebacks        36920193                       # Write bandwidth from this memory (bytes/s)
system.mem_ctrls.bw_write::total             36920193                       # Write bandwidth from this memory (bytes/s)
system.mem_ctrls.bw_total::writebacks        36920193                       # Total bandwidth to/from this memory (bytes/s)
system.mem_ctrls.bw_total::cpu.inst          14613838                       # Total bandwidth to/from this memory (bytes/s)
system.mem_ctrls.bw_total::cpu.data          31281228                       # Total bandwidth to/from this memory (bytes/s)
system.mem_ctrls.bw_total::l2.prefetcher     45747631                       # Total bandwidth to/from this memory (bytes/s)
system.mem_ctrls.bw_total::total            128562890                       # Total bandwidth to/from this memory (bytes/s)
system.mem_ctrls.readReqs                      113128                       # Number of read requests accepted
system.mem_ctrls.writeReqs                      45576                       # Number of write requests accepted
system.mem_ctrls.readBursts                    113128                       # Number of DRAM read bursts, including those serviced by the write queue
system.mem_ctrls.writeBursts                    45576                       # Number of DRAM write bursts, including those merged in the write queue
system.mem_ctrls.bytesReadDRAM                7124928                       # Total number of bytes read from DRAM
system.mem_ctrls.bytesReadWrQ                  115264                       # Total number of bytes read from write queue
system.mem_ctrls.bytesWritten                 2915392                       # Total number of bytes written to DRAM
system.mem_ctrls.bytesReadSys                 7240192                       # Total read bytes from the system interface side
system.mem_ctrls.bytesWrittenSys              2916864                       # Total written bytes from the system interface side
system.mem_ctrls.servicedByWrQ                   1801                       # Number of DRAM read bursts serviced by the write queue
system.mem_ctrls.mergedWrBursts                     4                       # Number of DRAM write bursts merged with an existing one
system.mem_ctrls.neitherReadNorWriteReqs            0                       # Number of requests that are neither read nor write
system.mem_ctrls.perBankRdBursts::0              6479                       # Per bank write bursts
system.mem_ctrls.perBankRdBursts::1              4393                       # Per bank write bursts
system.mem_ctrls.perBankRdBursts::2              9084                       # Per bank write bursts
system.mem_ctrls.perBankRdBursts::3              6311                       # Per bank write bursts
system.mem_ctrls.perBankRdBursts::4              5618                       # Per bank write bursts
system.mem_ctrls.perBankRdBursts::5              5552                       # Per bank write bursts
system.mem_ctrls.perBankRdBursts::6             11703                       # Per bank write bursts
system.mem_ctrls.perBankRdBursts::7              9840                       # Per bank write bursts
system.mem_ctrls.perBankRdBursts::8              6620                       # Per bank write bursts
system.mem_ctrls.perBankRdBursts::9              4875                       # Per bank write bursts
system.mem_ctrls.perBankRdBursts::10            10919                       # Per bank write bursts
system.mem_ctrls.perBankRdBursts::11             7562                       # Per bank write bursts
system.mem_ctrls.perBankRdBursts::12             4075                       # Per bank write bursts
system.mem_ctrls.perBankRdBursts::13             4739                       # Per bank write bursts
system.mem_ctrls.perBankRdBursts::14             7258                       # Per bank write bursts
system.mem_ctrls.perBankRdBursts::15             6299                       # Per bank write bursts
system.mem_ctrls.perBankWrBursts::0              2218                       # Per bank write bursts
system.mem_ctrls.perBankWrBursts::1              2411                       # Per bank write bursts
system.mem_ctrls.perBankWrBursts::2              3345                       # Per bank write bursts
system.mem_ctrls.perBankWrBursts::3              3704                       # Per bank write bursts
system.mem_ctrls.perBankWrBursts::4              3443                       # Per bank write bursts
system.mem_ctrls.perBankWrBursts::5              2361                       # Per bank write bursts
system.mem_ctrls.perBankWrBursts::6              4481                       # Per bank write bursts
system.mem_ctrls.perBankWrBursts::7              2922                       # Per bank write bursts
system.mem_ctrls.perBankWrBursts::8              2125                       # Per bank write bursts
system.mem_ctrls.perBankWrBursts::9              1896                       # Per bank write bursts
system.mem_ctrls.perBankWrBursts::10             2696                       # Per bank write bursts
system.mem_ctrls.perBankWrBursts::11             3377                       # Per bank write bursts
system.mem_ctrls.perBankWrBursts::12             2675                       # Per bank write bursts
system.mem_ctrls.perBankWrBursts::13             2700                       # Per bank write bursts
system.mem_ctrls.perBankWrBursts::14             2144                       # Per bank write bursts
system.mem_ctrls.perBankWrBursts::15             3055                       # Per bank write bursts
system.mem_ctrls.numRdRetry                         0                       # Number of times read queue was full causing retry
system.mem_ctrls.numWrRetry                         0                       # Number of times write queue was full causing retry
system.mem_ctrls.totGap                   79004500000                       # Total gap between requests
system.mem_ctrls.readPktSize::0                     0                       # Read request sizes (log2)
system.mem_ctrls.readPktSize::1                     0                       # Read request sizes (log2)
system.mem_ctrls.readPktSize::2                     0                       # Read request sizes (log2)
system.mem_ctrls.readPktSize::3                     0                       # Read request sizes (log2)
system.mem_ctrls.readPktSize::4                     0                       # Read request sizes (log2)
system.mem_ctrls.readPktSize::5                     0                       # Read request sizes (log2)
system.mem_ctrls.readPktSize::6                113128                       # Read request sizes (log2)
system.mem_ctrls.writePktSize::0                    0                       # Write request sizes (log2)
system.mem_ctrls.writePktSize::1                    0                       # Write request sizes (log2)
system.mem_ctrls.writePktSize::2                    0                       # Write request sizes (log2)
system.mem_ctrls.writePktSize::3                    0                       # Write request sizes (log2)
system.mem_ctrls.writePktSize::4                    0                       # Write request sizes (log2)
system.mem_ctrls.writePktSize::5                    0                       # Write request sizes (log2)
system.mem_ctrls.writePktSize::6                45576                       # Write request sizes (log2)
system.mem_ctrls.rdQLenPdf::0                   61054                       # What read queue length does an incoming req see
system.mem_ctrls.rdQLenPdf::1                   19028                       # What read queue length does an incoming req see
system.mem_ctrls.rdQLenPdf::2                    9905                       # What read queue length does an incoming req see
system.mem_ctrls.rdQLenPdf::3                    5758                       # What read queue length does an incoming req see
system.mem_ctrls.rdQLenPdf::4                    3866                       # What read queue length does an incoming req see
system.mem_ctrls.rdQLenPdf::5                    3222                       # What read queue length does an incoming req see
system.mem_ctrls.rdQLenPdf::6                    2692                       # What read queue length does an incoming req see
system.mem_ctrls.rdQLenPdf::7                    2232                       # What read queue length does an incoming req see
system.mem_ctrls.rdQLenPdf::8                    1500                       # What read queue length does an incoming req see
system.mem_ctrls.rdQLenPdf::9                     747                       # What read queue length does an incoming req see
system.mem_ctrls.rdQLenPdf::10                    526                       # What read queue length does an incoming req see
system.mem_ctrls.rdQLenPdf::11                    343                       # What read queue length does an incoming req see
system.mem_ctrls.rdQLenPdf::12                    261                       # What read queue length does an incoming req see
system.mem_ctrls.rdQLenPdf::13                    193                       # What read queue length does an incoming req see
system.mem_ctrls.rdQLenPdf::14                      0                       # What read queue length does an incoming req see
system.mem_ctrls.rdQLenPdf::15                      0                       # What read queue length does an incoming req see
system.mem_ctrls.rdQLenPdf::16                      0                       # What read queue length does an incoming req see
system.mem_ctrls.rdQLenPdf::17                      0                       # What read queue length does an incoming req see
system.mem_ctrls.rdQLenPdf::18                      0                       # What read queue length does an incoming req see
system.mem_ctrls.rdQLenPdf::19                      0                       # What read queue length does an incoming req see
system.mem_ctrls.rdQLenPdf::20                      0                       # What read queue length does an incoming req see
system.mem_ctrls.rdQLenPdf::21                      0                       # What read queue length does an incoming req see
system.mem_ctrls.rdQLenPdf::22                      0                       # What read queue length does an incoming req see
system.mem_ctrls.rdQLenPdf::23                      0                       # What read queue length does an incoming req see
system.mem_ctrls.rdQLenPdf::24                      0                       # What read queue length does an incoming req see
system.mem_ctrls.rdQLenPdf::25                      0                       # What read queue length does an incoming req see
system.mem_ctrls.rdQLenPdf::26                      0                       # What read queue length does an incoming req see
system.mem_ctrls.rdQLenPdf::27                      0                       # What read queue length does an incoming req see
system.mem_ctrls.rdQLenPdf::28                      0                       # What read queue length does an incoming req see
system.mem_ctrls.rdQLenPdf::29                      0                       # What read queue length does an incoming req see
system.mem_ctrls.rdQLenPdf::30                      0                       # What read queue length does an incoming req see
system.mem_ctrls.rdQLenPdf::31                      0                       # What read queue length does an incoming req see
system.mem_ctrls.wrQLenPdf::0                       1                       # What write queue length does an incoming req see
system.mem_ctrls.wrQLenPdf::1                       1                       # What write queue length does an incoming req see
system.mem_ctrls.wrQLenPdf::2                       1                       # What write queue length does an incoming req see
system.mem_ctrls.wrQLenPdf::3                       1                       # What write queue length does an incoming req see
system.mem_ctrls.wrQLenPdf::4                       1                       # What write queue length does an incoming req see
system.mem_ctrls.wrQLenPdf::5                       1                       # What write queue length does an incoming req see
system.mem_ctrls.wrQLenPdf::6                       1                       # What write queue length does an incoming req see
system.mem_ctrls.wrQLenPdf::7                       1                       # What write queue length does an incoming req see
system.mem_ctrls.wrQLenPdf::8                       1                       # What write queue length does an incoming req see
system.mem_ctrls.wrQLenPdf::9                       1                       # What write queue length does an incoming req see
system.mem_ctrls.wrQLenPdf::10                      1                       # What write queue length does an incoming req see
system.mem_ctrls.wrQLenPdf::11                      1                       # What write queue length does an incoming req see
system.mem_ctrls.wrQLenPdf::12                      1                       # What write queue length does an incoming req see
system.mem_ctrls.wrQLenPdf::13                      1                       # What write queue length does an incoming req see
system.mem_ctrls.wrQLenPdf::14                      1                       # What write queue length does an incoming req see
system.mem_ctrls.wrQLenPdf::15                   1098                       # What write queue length does an incoming req see
system.mem_ctrls.wrQLenPdf::16                   1167                       # What write queue length does an incoming req see
system.mem_ctrls.wrQLenPdf::17                   1882                       # What write queue length does an incoming req see
system.mem_ctrls.wrQLenPdf::18                   2182                       # What write queue length does an incoming req see
system.mem_ctrls.wrQLenPdf::19                   2401                       # What write queue length does an incoming req see
system.mem_ctrls.wrQLenPdf::20                   2551                       # What write queue length does an incoming req see
system.mem_ctrls.wrQLenPdf::21                   2697                       # What write queue length does an incoming req see
system.mem_ctrls.wrQLenPdf::22                   2794                       # What write queue length does an incoming req see
system.mem_ctrls.wrQLenPdf::23                   2821                       # What write queue length does an incoming req see
system.mem_ctrls.wrQLenPdf::24                   2862                       # What write queue length does an incoming req see
system.mem_ctrls.wrQLenPdf::25                   2929                       # What write queue length does an incoming req see
system.mem_ctrls.wrQLenPdf::26                   2963                       # What write queue length does an incoming req see
system.mem_ctrls.wrQLenPdf::27                   2985                       # What write queue length does an incoming req see
system.mem_ctrls.wrQLenPdf::28                   2934                       # What write queue length does an incoming req see
system.mem_ctrls.wrQLenPdf::29                   2934                       # What write queue length does an incoming req see
system.mem_ctrls.wrQLenPdf::30                   2886                       # What write queue length does an incoming req see
system.mem_ctrls.wrQLenPdf::31                   2709                       # What write queue length does an incoming req see
system.mem_ctrls.wrQLenPdf::32                   2689                       # What write queue length does an incoming req see
system.mem_ctrls.wrQLenPdf::33                     38                       # What write queue length does an incoming req see
system.mem_ctrls.wrQLenPdf::34                     15                       # What write queue length does an incoming req see
system.mem_ctrls.wrQLenPdf::35                      9                       # What write queue length does an incoming req see
system.mem_ctrls.wrQLenPdf::36                      7                       # What write queue length does an incoming req see
system.mem_ctrls.wrQLenPdf::37                      2                       # What write queue length does an incoming req see
system.mem_ctrls.wrQLenPdf::38                      1                       # What write queue length does an incoming req see
system.mem_ctrls.wrQLenPdf::39                      1                       # What write queue length does an incoming req see
system.mem_ctrls.wrQLenPdf::40                      0                       # What write queue length does an incoming req see
system.mem_ctrls.wrQLenPdf::41                      0                       # What write queue length does an incoming req see
system.mem_ctrls.wrQLenPdf::42                      0                       # What write queue length does an incoming req see
system.mem_ctrls.wrQLenPdf::43                      0                       # What write queue length does an incoming req see
system.mem_ctrls.wrQLenPdf::44                      0                       # What write queue length does an incoming req see
system.mem_ctrls.wrQLenPdf::45                      0                       # What write queue length does an incoming req see
system.mem_ctrls.wrQLenPdf::46                      0                       # What write queue length does an incoming req see
system.mem_ctrls.wrQLenPdf::47                      0                       # What write queue length does an incoming req see
system.mem_ctrls.wrQLenPdf::48                      0                       # What write queue length does an incoming req see
system.mem_ctrls.wrQLenPdf::49                      0                       # What write queue length does an incoming req see
system.mem_ctrls.wrQLenPdf::50                      0                       # What write queue length does an incoming req see
system.mem_ctrls.wrQLenPdf::51                      0                       # What write queue length does an incoming req see
system.mem_ctrls.wrQLenPdf::52                      0                       # What write queue length does an incoming req see
system.mem_ctrls.wrQLenPdf::53                      0                       # What write queue length does an incoming req see
system.mem_ctrls.wrQLenPdf::54                      0                       # What write queue length does an incoming req see
system.mem_ctrls.wrQLenPdf::55                      0                       # What write queue length does an incoming req see
system.mem_ctrls.wrQLenPdf::56                      0                       # What write queue length does an incoming req see
system.mem_ctrls.wrQLenPdf::57                      0                       # What write queue length does an incoming req see
system.mem_ctrls.wrQLenPdf::58                      0                       # What write queue length does an incoming req see
system.mem_ctrls.wrQLenPdf::59                      0                       # What write queue length does an incoming req see
system.mem_ctrls.wrQLenPdf::60                      0                       # What write queue length does an incoming req see
system.mem_ctrls.wrQLenPdf::61                      0                       # What write queue length does an incoming req see
system.mem_ctrls.wrQLenPdf::62                      0                       # What write queue length does an incoming req see
system.mem_ctrls.wrQLenPdf::63                      0                       # What write queue length does an incoming req see
system.mem_ctrls.bytesPerActivate::samples        43617                       # Bytes accessed per row activation
system.mem_ctrls.bytesPerActivate::mean    230.160534                       # Bytes accessed per row activation
system.mem_ctrls.bytesPerActivate::gmean   145.266694                       # Bytes accessed per row activation
system.mem_ctrls.bytesPerActivate::stdev   261.745523                       # Bytes accessed per row activation
system.mem_ctrls.bytesPerActivate::0-127        18859     43.24%     43.24% # Bytes accessed per row activation
system.mem_ctrls.bytesPerActivate::128-255        12104     27.75%     70.99% # Bytes accessed per row activation
system.mem_ctrls.bytesPerActivate::256-383         4546     10.42%     81.41% # Bytes accessed per row activation
system.mem_ctrls.bytesPerActivate::384-511         2333      5.35%     86.76% # Bytes accessed per row activation
system.mem_ctrls.bytesPerActivate::512-639         1364      3.13%     89.89% # Bytes accessed per row activation
system.mem_ctrls.bytesPerActivate::640-767          905      2.07%     91.96% # Bytes accessed per row activation
system.mem_ctrls.bytesPerActivate::768-895          569      1.30%     93.27% # Bytes accessed per row activation
system.mem_ctrls.bytesPerActivate::896-1023          414      0.95%     94.22% # Bytes accessed per row activation
system.mem_ctrls.bytesPerActivate::1024-1151         2523      5.78%    100.00% # Bytes accessed per row activation
system.mem_ctrls.bytesPerActivate::total        43617                       # Bytes accessed per row activation
system.mem_ctrls.rdPerTurnAround::samples         2666                       # Reads before turning the bus around for writes
system.mem_ctrls.rdPerTurnAround::mean      41.755064                       # Reads before turning the bus around for writes
system.mem_ctrls.rdPerTurnAround::stdev    107.572846                       # Reads before turning the bus around for writes
system.mem_ctrls.rdPerTurnAround::0-255          2665     99.96%     99.96% # Reads before turning the bus around for writes
system.mem_ctrls.rdPerTurnAround::5376-5631            1      0.04%    100.00% # Reads before turning the bus around for writes
system.mem_ctrls.rdPerTurnAround::total          2666                       # Reads before turning the bus around for writes
system.mem_ctrls.wrPerTurnAround::samples         2666                       # Writes before turning the bus around for reads
system.mem_ctrls.wrPerTurnAround::mean      17.086647                       # Writes before turning the bus around for reads
system.mem_ctrls.wrPerTurnAround::gmean     17.030676                       # Writes before turning the bus around for reads
system.mem_ctrls.wrPerTurnAround::stdev      1.433842                       # Writes before turning the bus around for reads
system.mem_ctrls.wrPerTurnAround::16             1490     55.89%     55.89% # Writes before turning the bus around for reads
system.mem_ctrls.wrPerTurnAround::17               50      1.88%     57.76% # Writes before turning the bus around for reads
system.mem_ctrls.wrPerTurnAround::18              812     30.46%     88.22% # Writes before turning the bus around for reads
system.mem_ctrls.wrPerTurnAround::19              173      6.49%     94.71% # Writes before turning the bus around for reads
system.mem_ctrls.wrPerTurnAround::20               65      2.44%     97.15% # Writes before turning the bus around for reads
system.mem_ctrls.wrPerTurnAround::21               39      1.46%     98.61% # Writes before turning the bus around for reads
system.mem_ctrls.wrPerTurnAround::22               24      0.90%     99.51% # Writes before turning the bus around for reads
system.mem_ctrls.wrPerTurnAround::23                7      0.26%     99.77% # Writes before turning the bus around for reads
system.mem_ctrls.wrPerTurnAround::24                3      0.11%     99.89% # Writes before turning the bus around for reads
system.mem_ctrls.wrPerTurnAround::25                2      0.08%     99.96% # Writes before turning the bus around for reads
system.mem_ctrls.wrPerTurnAround::30                1      0.04%    100.00% # Writes before turning the bus around for reads
system.mem_ctrls.wrPerTurnAround::total          2666                       # Writes before turning the bus around for reads
system.mem_ctrls.totQLat                   4695667356                       # Total ticks spent queuing
system.mem_ctrls.totMemAccLat              6783048606                       # Total ticks spent from burst creation until serviced by the DRAM
system.mem_ctrls.totBusLat                  556635000                       # Total ticks spent in databus transfers
system.mem_ctrls.avgQLat                     42179.05                       # Average queueing delay per DRAM burst
system.mem_ctrls.avgBusLat                    5000.00                       # Average bus latency per DRAM burst
system.mem_ctrls.avgMemAccLat                60929.05                       # Average memory access latency per DRAM burst
system.mem_ctrls.avgRdBW                        90.18                       # Average DRAM read bandwidth in MiByte/s
system.mem_ctrls.avgWrBW                        36.90                       # Average achieved write bandwidth in MiByte/s
system.mem_ctrls.avgRdBWSys                     91.64                       # Average system read bandwidth in MiByte/s
system.mem_ctrls.avgWrBWSys                     36.92                       # Average system write bandwidth in MiByte/s
system.mem_ctrls.peakBW                      12800.00                       # Theoretical peak bandwidth in MiByte/s
system.mem_ctrls.busUtil                         0.99                       # Data bus utilization in percentage
system.mem_ctrls.busUtilRead                     0.70                       # Data bus utilization in percentage for reads
system.mem_ctrls.busUtilWrite                    0.29                       # Data bus utilization in percentage for writes
system.mem_ctrls.avgRdQLen                       1.36                       # Average read queue length when enqueuing
system.mem_ctrls.avgWrQLen                      24.70                       # Average write queue length when enqueuing
system.mem_ctrls.readRowHits                    82956                       # Number of row buffer hits during reads
system.mem_ctrls.writeRowHits                   30300                       # Number of row buffer hits during writes
system.mem_ctrls.readRowHitRate                 74.52                       # Row buffer hit rate for reads
system.mem_ctrls.writeRowHitRate                66.49                       # Row buffer hit rate for writes
system.mem_ctrls.avgGap                     497810.39                       # Average gap between requests
system.mem_ctrls.pageHitRate                    72.18                       # Row buffer hit rate, read and write combined
system.mem_ctrls_0.actEnergy                158743620                       # Energy for activate commands per rank (pJ)
system.mem_ctrls_0.preEnergy                 84347670                       # Energy for precharge commands per rank (pJ)
system.mem_ctrls_0.readEnergy               421117200                       # Energy for read commands per rank (pJ)
system.mem_ctrls_0.writeEnergy              129899700                       # Energy for write commands per rank (pJ)
system.mem_ctrls_0.refreshEnergy         5015462400.000001                       # Energy for refresh commands per rank (pJ)
system.mem_ctrls_0.actBackEnergy           2561892360                       # Energy for active background per rank (pJ)
system.mem_ctrls_0.preBackEnergy            262842240                       # Energy for precharge background per rank (pJ)
system.mem_ctrls_0.actPowerDownEnergy     12170989980                       # Energy for active power-down per rank (pJ)
system.mem_ctrls_0.prePowerDownEnergy      7199866080                       # Energy for precharge power-down per rank (pJ)
system.mem_ctrls_0.selfRefreshEnergy       7441250280                       # Energy for self refresh per rank (pJ)
system.mem_ctrls_0.totalEnergy            35447857260                       # Total energy per rank (pJ)
system.mem_ctrls_0.averagePower            448.681093                       # Core power per rank (mW)
system.mem_ctrls_0.totalIdleTime          72698674876                       # Total Idle time Per DRAM Rank
system.mem_ctrls_0.memoryStateTime::IDLE    492799757                       # Time in different power states
system.mem_ctrls_0.memoryStateTime::REF    2131590000                       # Time in different power states
system.mem_ctrls_0.memoryStateTime::SREF  27258249750                       # Time in different power states
system.mem_ctrls_0.memoryStateTime::PRE_PDN  18749571522                       # Time in different power states
system.mem_ctrls_0.memoryStateTime::ACT    3681467117                       # Time in different power states
system.mem_ctrls_0.memoryStateTime::ACT_PDN  26690892854                       # Time in different power states
system.mem_ctrls_1.actEnergy                152731740                       # Energy for activate commands per rank (pJ)
system.mem_ctrls_1.preEnergy                 81178845                       # Energy for precharge commands per rank (pJ)
system.mem_ctrls_1.readEnergy               373757580                       # Energy for read commands per rank (pJ)
system.mem_ctrls_1.writeEnergy              107886960                       # Energy for write commands per rank (pJ)
system.mem_ctrls_1.refreshEnergy         4821236160.000001                       # Energy for refresh commands per rank (pJ)
system.mem_ctrls_1.actBackEnergy           2612491830                       # Energy for active background per rank (pJ)
system.mem_ctrls_1.preBackEnergy            251154720                       # Energy for precharge background per rank (pJ)
system.mem_ctrls_1.actPowerDownEnergy     11390177760                       # Energy for active power-down per rank (pJ)
system.mem_ctrls_1.prePowerDownEnergy      6982044000                       # Energy for precharge power-down per rank (pJ)
system.mem_ctrls_1.selfRefreshEnergy       7949135640                       # Energy for self refresh per rank (pJ)
system.mem_ctrls_1.totalEnergy            34723569045                       # Total energy per rank (pJ)
system.mem_ctrls_1.averagePower            439.513418                       # Core power per rank (mW)
system.mem_ctrls_1.totalIdleTime          72617571467                       # Total Idle time Per DRAM Rank
system.mem_ctrls_1.memoryStateTime::IDLE    468534500                       # Time in different power states
system.mem_ctrls_1.memoryStateTime::REF    2049214000                       # Time in different power states
system.mem_ctrls_1.memoryStateTime::SREF  29456573250                       # Time in different power states
system.mem_ctrls_1.memoryStateTime::PRE_PDN  18182534359                       # Time in different power states
system.mem_ctrls_1.memoryStateTime::ACT    3869251033                       # Time in different power states
system.mem_ctrls_1.memoryStateTime::ACT_PDN  24978463858                       # Time in different power states
system.pwrStateResidencyTicks::UNDEFINED  79004571000                       # Cumulative time (in ticks) in various power states
system.cpu.branchPred.lookups                43242643                       # Number of BP lookups
system.cpu.branchPred.condPredicted          24553503                       # Number of conditional branches predicted
system.cpu.branchPred.condIncorrect           1708965                       # Number of conditional branches incorrect
system.cpu.branchPred.BTBLookups             24550501                       # Number of BTB lookups
system.cpu.branchPred.BTBHits                19344124                       # Number of BTB hits
system.cpu.branchPred.BTBCorrect                    0                       # Number of correct BTB predictions (this stat may not work properly.
system.cpu.branchPred.BTBHitPct             78.793194                       # BTB Hit Percentage
system.cpu.branchPred.usedRAS                 6693485                       # Number of times the RAS was used to get a target.
system.cpu.branchPred.RASInCorrect             185423                       # Number of incorrect RAS predictions.
system.cpu.branchPred.indirectLookups         2222308                       # Number of indirect predictor lookups.
system.cpu.branchPred.indirectHits            2167184                       # Number of indirect target hits.
system.cpu.branchPred.indirectMisses            55124                       # Number of indirect misses.
system.cpu.branchPredindirectMispredicted        94576                       # Number of mispredicted indirect branches.
system.cpu_voltage_domain.voltage                   1                       # Voltage in Volts
system.cpu_clk_domain.clock                       500                       # Clock period in ticks
system.cpu.dstage2_mmu.stage2_tlb.walker.pwrStateResidencyTicks::UNDEFINED  79004571000                       # Cumulative time (in ticks) in various power states
system.cpu.dstage2_mmu.stage2_tlb.walker.walks            0                       # Table walker walks requested
system.cpu.dstage2_mmu.stage2_tlb.walker.walkRequestOrigin_Requested::Data            0                       # Table walker requests started/completed, data/inst
system.cpu.dstage2_mmu.stage2_tlb.walker.walkRequestOrigin_Requested::Inst            0                       # Table walker requests started/completed, data/inst
system.cpu.dstage2_mmu.stage2_tlb.walker.walkRequestOrigin_Requested::total            0                       # Table walker requests started/completed, data/inst
system.cpu.dstage2_mmu.stage2_tlb.walker.walkRequestOrigin_Completed::Data            0                       # Table walker requests started/completed, data/inst
system.cpu.dstage2_mmu.stage2_tlb.walker.walkRequestOrigin_Completed::Inst            0                       # Table walker requests started/completed, data/inst
system.cpu.dstage2_mmu.stage2_tlb.walker.walkRequestOrigin_Completed::total            0                       # Table walker requests started/completed, data/inst
system.cpu.dstage2_mmu.stage2_tlb.walker.walkRequestOrigin::total            0                       # Table walker requests started/completed, data/inst
system.cpu.dstage2_mmu.stage2_tlb.inst_hits            0                       # ITB inst hits
system.cpu.dstage2_mmu.stage2_tlb.inst_misses            0                       # ITB inst misses
system.cpu.dstage2_mmu.stage2_tlb.read_hits            0                       # DTB read hits
system.cpu.dstage2_mmu.stage2_tlb.read_misses            0                       # DTB read misses
system.cpu.dstage2_mmu.stage2_tlb.write_hits            0                       # DTB write hits
system.cpu.dstage2_mmu.stage2_tlb.write_misses            0                       # DTB write misses
system.cpu.dstage2_mmu.stage2_tlb.flush_tlb            0                       # Number of times complete TLB was flushed
system.cpu.dstage2_mmu.stage2_tlb.flush_tlb_mva            0                       # Number of times TLB was flushed by MVA
system.cpu.dstage2_mmu.stage2_tlb.flush_tlb_mva_asid            0                       # Number of times TLB was flushed by MVA & ASID
system.cpu.dstage2_mmu.stage2_tlb.flush_tlb_asid            0                       # Number of times TLB was flushed by ASID
system.cpu.dstage2_mmu.stage2_tlb.flush_entries            0                       # Number of entries that have been flushed from TLB
system.cpu.dstage2_mmu.stage2_tlb.align_faults            0                       # Number of TLB faults due to alignment restrictions
system.cpu.dstage2_mmu.stage2_tlb.prefetch_faults            0                       # Number of TLB faults due to prefetch
system.cpu.dstage2_mmu.stage2_tlb.domain_faults            0                       # Number of TLB faults due to domain restrictions
system.cpu.dstage2_mmu.stage2_tlb.perms_faults            0                       # Number of TLB faults due to permissions restrictions
system.cpu.dstage2_mmu.stage2_tlb.read_accesses            0                       # DTB read accesses
system.cpu.dstage2_mmu.stage2_tlb.write_accesses            0                       # DTB write accesses
system.cpu.dstage2_mmu.stage2_tlb.inst_accesses            0                       # ITB inst accesses
system.cpu.dstage2_mmu.stage2_tlb.hits              0                       # DTB hits
system.cpu.dstage2_mmu.stage2_tlb.misses            0                       # DTB misses
system.cpu.dstage2_mmu.stage2_tlb.accesses            0                       # DTB accesses
system.cpu.dtb.walker.pwrStateResidencyTicks::UNDEFINED  79004571000                       # Cumulative time (in ticks) in various power states
system.cpu.dtb.walker.walks                         0                       # Table walker walks requested
system.cpu.dtb.walker.walkRequestOrigin_Requested::Data            0                       # Table walker requests started/completed, data/inst
system.cpu.dtb.walker.walkRequestOrigin_Requested::Inst            0                       # Table walker requests started/completed, data/inst
system.cpu.dtb.walker.walkRequestOrigin_Requested::total            0                       # Table walker requests started/completed, data/inst
system.cpu.dtb.walker.walkRequestOrigin_Completed::Data            0                       # Table walker requests started/completed, data/inst
system.cpu.dtb.walker.walkRequestOrigin_Completed::Inst            0                       # Table walker requests started/completed, data/inst
system.cpu.dtb.walker.walkRequestOrigin_Completed::total            0                       # Table walker requests started/completed, data/inst
system.cpu.dtb.walker.walkRequestOrigin::total            0                       # Table walker requests started/completed, data/inst
system.cpu.dtb.inst_hits                            0                       # ITB inst hits
system.cpu.dtb.inst_misses                          0                       # ITB inst misses
system.cpu.dtb.read_hits                            0                       # DTB read hits
system.cpu.dtb.read_misses                          0                       # DTB read misses
system.cpu.dtb.write_hits                           0                       # DTB write hits
system.cpu.dtb.write_misses                         0                       # DTB write misses
system.cpu.dtb.flush_tlb                            0                       # Number of times complete TLB was flushed
system.cpu.dtb.flush_tlb_mva                        0                       # Number of times TLB was flushed by MVA
system.cpu.dtb.flush_tlb_mva_asid                   0                       # Number of times TLB was flushed by MVA & ASID
system.cpu.dtb.flush_tlb_asid                       0                       # Number of times TLB was flushed by ASID
system.cpu.dtb.flush_entries                        0                       # Number of entries that have been flushed from TLB
system.cpu.dtb.align_faults                         0                       # Number of TLB faults due to alignment restrictions
system.cpu.dtb.prefetch_faults                      0                       # Number of TLB faults due to prefetch
system.cpu.dtb.domain_faults                        0                       # Number of TLB faults due to domain restrictions
system.cpu.dtb.perms_faults                         0                       # Number of TLB faults due to permissions restrictions
system.cpu.dtb.read_accesses                        0                       # DTB read accesses
system.cpu.dtb.write_accesses                       0                       # DTB write accesses
system.cpu.dtb.inst_accesses                        0                       # ITB inst accesses
system.cpu.dtb.hits                                 0                       # DTB hits
system.cpu.dtb.misses                               0                       # DTB misses
system.cpu.dtb.accesses                             0                       # DTB accesses
system.cpu.istage2_mmu.stage2_tlb.walker.pwrStateResidencyTicks::UNDEFINED  79004571000                       # Cumulative time (in ticks) in various power states
system.cpu.istage2_mmu.stage2_tlb.walker.walks            0                       # Table walker walks requested
system.cpu.istage2_mmu.stage2_tlb.walker.walkRequestOrigin_Requested::Data            0                       # Table walker requests started/completed, data/inst
system.cpu.istage2_mmu.stage2_tlb.walker.walkRequestOrigin_Requested::Inst            0                       # Table walker requests started/completed, data/inst
system.cpu.istage2_mmu.stage2_tlb.walker.walkRequestOrigin_Requested::total            0                       # Table walker requests started/completed, data/inst
system.cpu.istage2_mmu.stage2_tlb.walker.walkRequestOrigin_Completed::Data            0                       # Table walker requests started/completed, data/inst
system.cpu.istage2_mmu.stage2_tlb.walker.walkRequestOrigin_Completed::Inst            0                       # Table walker requests started/completed, data/inst
system.cpu.istage2_mmu.stage2_tlb.walker.walkRequestOrigin_Completed::total            0                       # Table walker requests started/completed, data/inst
system.cpu.istage2_mmu.stage2_tlb.walker.walkRequestOrigin::total            0                       # Table walker requests started/completed, data/inst
system.cpu.istage2_mmu.stage2_tlb.inst_hits            0                       # ITB inst hits
system.cpu.istage2_mmu.stage2_tlb.inst_misses            0                       # ITB inst misses
system.cpu.istage2_mmu.stage2_tlb.read_hits            0                       # DTB read hits
system.cpu.istage2_mmu.stage2_tlb.read_misses            0                       # DTB read misses
system.cpu.istage2_mmu.stage2_tlb.write_hits            0                       # DTB write hits
system.cpu.istage2_mmu.stage2_tlb.write_misses            0                       # DTB write misses
system.cpu.istage2_mmu.stage2_tlb.flush_tlb            0                       # Number of times complete TLB was flushed
system.cpu.istage2_mmu.stage2_tlb.flush_tlb_mva            0                       # Number of times TLB was flushed by MVA
system.cpu.istage2_mmu.stage2_tlb.flush_tlb_mva_asid            0                       # Number of times TLB was flushed by MVA & ASID
system.cpu.istage2_mmu.stage2_tlb.flush_tlb_asid            0                       # Number of times TLB was flushed by ASID
system.cpu.istage2_mmu.stage2_tlb.flush_entries            0                       # Number of entries that have been flushed from TLB
system.cpu.istage2_mmu.stage2_tlb.align_faults            0                       # Number of TLB faults due to alignment restrictions
system.cpu.istage2_mmu.stage2_tlb.prefetch_faults            0                       # Number of TLB faults due to prefetch
system.cpu.istage2_mmu.stage2_tlb.domain_faults            0                       # Number of TLB faults due to domain restrictions
system.cpu.istage2_mmu.stage2_tlb.perms_faults            0                       # Number of TLB faults due to permissions restrictions
system.cpu.istage2_mmu.stage2_tlb.read_accesses            0                       # DTB read accesses
system.cpu.istage2_mmu.stage2_tlb.write_accesses            0                       # DTB write accesses
system.cpu.istage2_mmu.stage2_tlb.inst_accesses            0                       # ITB inst accesses
system.cpu.istage2_mmu.stage2_tlb.hits              0                       # DTB hits
system.cpu.istage2_mmu.stage2_tlb.misses            0                       # DTB misses
system.cpu.istage2_mmu.stage2_tlb.accesses            0                       # DTB accesses
system.cpu.itb.walker.pwrStateResidencyTicks::UNDEFINED  79004571000                       # Cumulative time (in ticks) in various power states
system.cpu.itb.walker.walks                         0                       # Table walker walks requested
system.cpu.itb.walker.walkRequestOrigin_Requested::Data            0                       # Table walker requests started/completed, data/inst
system.cpu.itb.walker.walkRequestOrigin_Requested::Inst            0                       # Table walker requests started/completed, data/inst
system.cpu.itb.walker.walkRequestOrigin_Requested::total            0                       # Table walker requests started/completed, data/inst
system.cpu.itb.walker.walkRequestOrigin_Completed::Data            0                       # Table walker requests started/completed, data/inst
system.cpu.itb.walker.walkRequestOrigin_Completed::Inst            0                       # Table walker requests started/completed, data/inst
system.cpu.itb.walker.walkRequestOrigin_Completed::total            0                       # Table walker requests started/completed, data/inst
system.cpu.itb.walker.walkRequestOrigin::total            0                       # Table walker requests started/completed, data/inst
system.cpu.itb.inst_hits                            0                       # ITB inst hits
system.cpu.itb.inst_misses                          0                       # ITB inst misses
system.cpu.itb.read_hits                            0                       # DTB read hits
system.cpu.itb.read_misses                          0                       # DTB read misses
system.cpu.itb.write_hits                           0                       # DTB write hits
system.cpu.itb.write_misses                         0                       # DTB write misses
system.cpu.itb.flush_tlb                            0                       # Number of times complete TLB was flushed
system.cpu.itb.flush_tlb_mva                        0                       # Number of times TLB was flushed by MVA
system.cpu.itb.flush_tlb_mva_asid                   0                       # Number of times TLB was flushed by MVA & ASID
system.cpu.itb.flush_tlb_asid                       0                       # Number of times TLB was flushed by ASID
system.cpu.itb.flush_entries                        0                       # Number of entries that have been flushed from TLB
system.cpu.itb.align_faults                         0                       # Number of TLB faults due to alignment restrictions
system.cpu.itb.prefetch_faults                      0                       # Number of TLB faults due to prefetch
system.cpu.itb.domain_faults                        0                       # Number of TLB faults due to domain restrictions
system.cpu.itb.perms_faults                         0                       # Number of TLB faults due to permissions restrictions
system.cpu.itb.read_accesses                        0                       # DTB read accesses
system.cpu.itb.write_accesses                       0                       # DTB write accesses
system.cpu.itb.inst_accesses                        0                       # ITB inst accesses
system.cpu.itb.hits                                 0                       # DTB hits
system.cpu.itb.misses                               0                       # DTB misses
system.cpu.itb.accesses                             0                       # DTB accesses
system.cpu.workload.numSyscalls                    75                       # Number of system calls
system.cpu.pwrStateResidencyTicks::ON     79004571000                       # Cumulative time (in ticks) in various power states
system.cpu.numCycles                        158009143                       # number of cpu cycles simulated
system.cpu.numWorkItemsStarted                      0                       # number of work items this cpu started
system.cpu.numWorkItemsCompleted                    0                       # number of work items this cpu completed
system.cpu.fetch.icacheStallCycles            5925023                       # Number of cycles fetch is stalled on an Icache miss
system.cpu.fetch.Insts                      247208492                       # Number of instructions fetch has processed
system.cpu.fetch.Branches                    43242643                       # Number of branches that fetch encountered
system.cpu.fetch.predictedBranches           28204793                       # Number of branches that fetch has predicted taken
system.cpu.fetch.Cycles                     147796512                       # Number of cycles fetch has run and was not squashing or blocked
system.cpu.fetch.SquashCycles                 3439086                       # Number of cycles fetch has spent squashing
system.cpu.fetch.MiscStallCycles                 6117                       # Number of cycles fetch has spent waiting on interrupts, or bad addresses, or out of MSHRs
system.cpu.fetch.PendingTrapStallCycles           266                       # Number of stall cycles due to pending traps
system.cpu.fetch.IcacheWaitRetryStallCycles        15768                       # Number of stall cycles due to full MSHR
system.cpu.fetch.CacheLines                  83878751                       # Number of cache lines fetched
system.cpu.fetch.IcacheSquashes                 67470                       # Number of outstanding Icache misses that were squashed
system.cpu.fetch.rateDist::samples          155463229                       # Number of instructions fetched each cycle (Total)
system.cpu.fetch.rateDist::mean              1.840371                       # Number of instructions fetched each cycle (Total)
system.cpu.fetch.rateDist::stdev             1.088438                       # Number of instructions fetched each cycle (Total)
system.cpu.fetch.rateDist::underflows               0      0.00%      0.00% # Number of instructions fetched each cycle (Total)
system.cpu.fetch.rateDist::0                 18047143     11.61%     11.61% # Number of instructions fetched each cycle (Total)
system.cpu.fetch.rateDist::1                 52335935     33.66%     45.27% # Number of instructions fetched each cycle (Total)
system.cpu.fetch.rateDist::2                 21466432     13.81%     59.08% # Number of instructions fetched each cycle (Total)
system.cpu.fetch.rateDist::3                 63613719     40.92%    100.00% # Number of instructions fetched each cycle (Total)
system.cpu.fetch.rateDist::overflows                0      0.00%    100.00% # Number of instructions fetched each cycle (Total)
system.cpu.fetch.rateDist::min_value                0                       # Number of instructions fetched each cycle (Total)
system.cpu.fetch.rateDist::max_value                3                       # Number of instructions fetched each cycle (Total)
system.cpu.fetch.rateDist::total            155463229                       # Number of instructions fetched each cycle (Total)
system.cpu.fetch.branchRate                  0.273672                       # Number of branch fetches per cycle
system.cpu.fetch.rate                        1.564520                       # Number of inst fetches per cycle
system.cpu.decode.IdleCycles                 12627933                       # Number of cycles decode is idle
system.cpu.decode.BlockedCycles              21729867                       # Number of cycles decode is blocked
system.cpu.decode.RunCycles                 112301891                       # Number of cycles decode is running
system.cpu.decode.UnblockCycles               7113631                       # Number of cycles decode is unblocking
system.cpu.decode.SquashCycles                1689907                       # Number of cycles decode is squashing
system.cpu.decode.BranchResolved             18442265                       # Number of times decode resolved a branch
system.cpu.decode.BranchMispred                 30216                       # Number of times decode detected a branch misprediction
system.cpu.decode.DecodedInsts              268695983                       # Number of instructions handled by decode
system.cpu.decode.SquashedInsts               6695589                       # Number of squashed instructions handled by decode
system.cpu.rename.SquashCycles                1689907                       # Number of cycles rename is squashing
system.cpu.rename.IdleCycles                 21074489                       # Number of cycles rename is idle
system.cpu.rename.BlockCycles                11438425                       # Number of cycles rename is blocking
system.cpu.rename.serializeStallCycles         281867                       # count of cycles rename stalled for serializing inst
system.cpu.rename.RunCycles                 110670206                       # Number of cycles rename is running
system.cpu.rename.UnblockCycles              10308335                       # Number of cycles rename is unblocking
system.cpu.rename.RenamedInsts              261913701                       # Number of instructions processed by rename
system.cpu.rename.SquashedInsts               3238275                       # Number of squashed instructions processed by rename
system.cpu.rename.ROBFullEvents               2908539                       # Number of times rename has blocked due to ROB full
system.cpu.rename.IQFullEvents                2449449                       # Number of times rename has blocked due to IQ full
system.cpu.rename.LQFullEvents                 200116                       # Number of times rename has blocked due to LQ full
system.cpu.rename.SQFullEvents                2206771                       # Number of times rename has blocked due to SQ full
system.cpu.rename.RenamedOperands           348809413                       # Number of destination operands rename has renamed
system.cpu.rename.RenameLookups            1236863958                       # Number of register rename lookups that rename has made
system.cpu.rename.int_rename_lookups        345957251                       # Number of integer rename lookups
system.cpu.rename.fp_rename_lookups                16                       # Number of floating rename lookups
system.cpu.rename.CommittedMaps             305760756                       # Number of HB maps that are committed
system.cpu.rename.UndoneMaps                 43048656                       # Number of HB maps that are undone due to squashing
system.cpu.rename.serializingInsts               9153                       # count of serializing insts renamed
system.cpu.rename.tempSerializingInsts           6182                       # count of temporary serializing insts renamed
system.cpu.rename.skidInsts                  14638635                       # count of insts added to the skid buffer
system.cpu.memDep0.insertedLoads             30007371                       # Number of loads inserted to the mem dependence unit.
system.cpu.memDep0.insertedStores            23914247                       # Number of stores inserted to the mem dependence unit.
system.cpu.memDep0.conflictingLoads           1171868                       # Number of conflicting loads.
system.cpu.memDep0.conflictingStores          5694219                       # Number of conflicting stores.
system.cpu.iq.iqInstsAdded                  258587660                       # Number of instructions added to the IQ (excludes non-spec)
system.cpu.iq.iqNonSpecInstsAdded               11919                       # Number of non-speculative instructions added to the IQ
system.cpu.iq.iqInstsIssued                 243509629                       # Number of instructions issued
system.cpu.iq.iqSquashedInstsIssued           2076667                       # Number of squashed instructions issued
system.cpu.iq.iqSquashedInstsExamined        28665806                       # Number of squashed instructions iterated over during squash; mainly for profiling
system.cpu.iq.iqSquashedOperandsExamined     86745780                       # Number of squashed operands that are examined and possibly removed from graph
system.cpu.iq.iqSquashedNonSpecRemoved            404                       # Number of squashed non-spec instructions that were removed
system.cpu.iq.issued_per_cycle::samples     155463229                       # Number of insts issued each cycle
system.cpu.iq.issued_per_cycle::mean         1.566349                       # Number of insts issued each cycle
system.cpu.iq.issued_per_cycle::stdev        1.035668                       # Number of insts issued each cycle
system.cpu.iq.issued_per_cycle::underflows            0      0.00%      0.00% # Number of insts issued each cycle
system.cpu.iq.issued_per_cycle::0            32260055     20.75%     20.75% # Number of insts issued each cycle
system.cpu.iq.issued_per_cycle::1            33374474     21.47%     42.22% # Number of insts issued each cycle
system.cpu.iq.issued_per_cycle::2            60897467     39.17%     81.39% # Number of insts issued each cycle
system.cpu.iq.issued_per_cycle::3            27385289     17.62%     99.01% # Number of insts issued each cycle
system.cpu.iq.issued_per_cycle::4             1545366      0.99%    100.00% # Number of insts issued each cycle
system.cpu.iq.issued_per_cycle::5                 578      0.00%    100.00% # Number of insts issued each cycle
system.cpu.iq.issued_per_cycle::6                   0      0.00%    100.00% # Number of insts issued each cycle
system.cpu.iq.issued_per_cycle::7                   0      0.00%    100.00% # Number of insts issued each cycle
system.cpu.iq.issued_per_cycle::8                   0      0.00%    100.00% # Number of insts issued each cycle
system.cpu.iq.issued_per_cycle::overflows            0      0.00%    100.00% # Number of insts issued each cycle
system.cpu.iq.issued_per_cycle::min_value            0                       # Number of insts issued each cycle
system.cpu.iq.issued_per_cycle::max_value            5                       # Number of insts issued each cycle
system.cpu.iq.issued_per_cycle::total       155463229                       # Number of insts issued each cycle
system.cpu.iq.fu_full::No_OpClass                   0      0.00%      0.00% # attempts to use FU when none available
system.cpu.iq.fu_full::IntAlu                38765341     75.21%     75.21% # attempts to use FU when none available
system.cpu.iq.fu_full::IntMult                   1197      0.00%     75.21% # attempts to use FU when none available
system.cpu.iq.fu_full::IntDiv                       0      0.00%     75.21% # attempts to use FU when none available
system.cpu.iq.fu_full::FloatAdd                     0      0.00%     75.21% # attempts to use FU when none available
system.cpu.iq.fu_full::FloatCmp                     0      0.00%     75.21% # attempts to use FU when none available
system.cpu.iq.fu_full::FloatCvt                     0      0.00%     75.21% # attempts to use FU when none available
system.cpu.iq.fu_full::FloatMult                    0      0.00%     75.21% # attempts to use FU when none available
system.cpu.iq.fu_full::FloatMultAcc                 0      0.00%     75.21% # attempts to use FU when none available
system.cpu.iq.fu_full::FloatDiv                     0      0.00%     75.21% # attempts to use FU when none available
system.cpu.iq.fu_full::FloatMisc                    0      0.00%     75.21% # attempts to use FU when none available
system.cpu.iq.fu_full::FloatSqrt                    0      0.00%     75.21% # attempts to use FU when none available
system.cpu.iq.fu_full::SimdAdd                      0      0.00%     75.21% # attempts to use FU when none available
system.cpu.iq.fu_full::SimdAddAcc                   0      0.00%     75.21% # attempts to use FU when none available
system.cpu.iq.fu_full::SimdAlu                      0      0.00%     75.21% # attempts to use FU when none available
system.cpu.iq.fu_full::SimdCmp                      0      0.00%     75.21% # attempts to use FU when none available
system.cpu.iq.fu_full::SimdCvt                      0      0.00%     75.21% # attempts to use FU when none available
system.cpu.iq.fu_full::SimdMisc                     0      0.00%     75.21% # attempts to use FU when none available
system.cpu.iq.fu_full::SimdMult                     0      0.00%     75.21% # attempts to use FU when none available
system.cpu.iq.fu_full::SimdMultAcc                  0      0.00%     75.21% # attempts to use FU when none available
system.cpu.iq.fu_full::SimdShift                    0      0.00%     75.21% # attempts to use FU when none available
system.cpu.iq.fu_full::SimdShiftAcc                 0      0.00%     75.21% # attempts to use FU when none available
system.cpu.iq.fu_full::SimdSqrt                     0      0.00%     75.21% # attempts to use FU when none available
system.cpu.iq.fu_full::SimdFloatAdd                 0      0.00%     75.21% # attempts to use FU when none available
system.cpu.iq.fu_full::SimdFloatAlu                 0      0.00%     75.21% # attempts to use FU when none available
system.cpu.iq.fu_full::SimdFloatCmp                 0      0.00%     75.21% # attempts to use FU when none available
system.cpu.iq.fu_full::SimdFloatCvt                 0      0.00%     75.21% # attempts to use FU when none available
system.cpu.iq.fu_full::SimdFloatDiv                 0      0.00%     75.21% # attempts to use FU when none available
system.cpu.iq.fu_full::SimdFloatMisc                0      0.00%     75.21% # attempts to use FU when none available
system.cpu.iq.fu_full::SimdFloatMult                0      0.00%     75.21% # attempts to use FU when none available
system.cpu.iq.fu_full::SimdFloatMultAcc             0      0.00%     75.21% # attempts to use FU when none available
system.cpu.iq.fu_full::SimdFloatSqrt                0      0.00%     75.21% # attempts to use FU when none available
system.cpu.iq.fu_full::MemRead                8146380     15.80%     91.01% # attempts to use FU when none available
system.cpu.iq.fu_full::MemWrite               4631301      8.99%    100.00% # attempts to use FU when none available
system.cpu.iq.fu_full::FloatMemRead                 0      0.00%    100.00% # attempts to use FU when none available
system.cpu.iq.fu_full::FloatMemWrite               12      0.00%    100.00% # attempts to use FU when none available
system.cpu.iq.fu_full::IprAccess                    0      0.00%    100.00% # attempts to use FU when none available
system.cpu.iq.fu_full::InstPrefetch                 0      0.00%    100.00% # attempts to use FU when none available
system.cpu.iq.FU_type_0::No_OpClass                10      0.00%      0.00% # Type of FU issued
system.cpu.iq.FU_type_0::IntAlu             189303008     77.74%     77.74% # Type of FU issued
system.cpu.iq.FU_type_0::IntMult              1824808      0.75%     78.49% # Type of FU issued
system.cpu.iq.FU_type_0::IntDiv                     0      0.00%     78.49% # Type of FU issued
system.cpu.iq.FU_type_0::FloatAdd                   0      0.00%     78.49% # Type of FU issued
system.cpu.iq.FU_type_0::FloatCmp                   0      0.00%     78.49% # Type of FU issued
system.cpu.iq.FU_type_0::FloatCvt                   0      0.00%     78.49% # Type of FU issued
system.cpu.iq.FU_type_0::FloatMult                  0      0.00%     78.49% # Type of FU issued
system.cpu.iq.FU_type_0::FloatMultAcc               0      0.00%     78.49% # Type of FU issued
system.cpu.iq.FU_type_0::FloatDiv                   0      0.00%     78.49% # Type of FU issued
system.cpu.iq.FU_type_0::FloatMisc                  0      0.00%     78.49% # Type of FU issued
system.cpu.iq.FU_type_0::FloatSqrt                  0      0.00%     78.49% # Type of FU issued
system.cpu.iq.FU_type_0::SimdAdd                    0      0.00%     78.49% # Type of FU issued
system.cpu.iq.FU_type_0::SimdAddAcc                 0      0.00%     78.49% # Type of FU issued
system.cpu.iq.FU_type_0::SimdAlu                    0      0.00%     78.49% # Type of FU issued
system.cpu.iq.FU_type_0::SimdCmp                    0      0.00%     78.49% # Type of FU issued
system.cpu.iq.FU_type_0::SimdCvt                    0      0.00%     78.49% # Type of FU issued
system.cpu.iq.FU_type_0::SimdMisc                   0      0.00%     78.49% # Type of FU issued
system.cpu.iq.FU_type_0::SimdMult                   0      0.00%     78.49% # Type of FU issued
system.cpu.iq.FU_type_0::SimdMultAcc                0      0.00%     78.49% # Type of FU issued
system.cpu.iq.FU_type_0::SimdShift                  0      0.00%     78.49% # Type of FU issued
system.cpu.iq.FU_type_0::SimdShiftAcc               0      0.00%     78.49% # Type of FU issued
system.cpu.iq.FU_type_0::SimdSqrt                   0      0.00%     78.49% # Type of FU issued
system.cpu.iq.FU_type_0::SimdFloatAdd               0      0.00%     78.49% # Type of FU issued
system.cpu.iq.FU_type_0::SimdFloatAlu               0      0.00%     78.49% # Type of FU issued
system.cpu.iq.FU_type_0::SimdFloatCmp               0      0.00%     78.49% # Type of FU issued
system.cpu.iq.FU_type_0::SimdFloatCvt               0      0.00%     78.49% # Type of FU issued
system.cpu.iq.FU_type_0::SimdFloatDiv               0      0.00%     78.49% # Type of FU issued
system.cpu.iq.FU_type_0::SimdFloatMisc           2956      0.00%     78.49% # Type of FU issued
system.cpu.iq.FU_type_0::SimdFloatMult              0      0.00%     78.49% # Type of FU issued
system.cpu.iq.FU_type_0::SimdFloatMultAcc            0      0.00%     78.49% # Type of FU issued
system.cpu.iq.FU_type_0::SimdFloatSqrt              0      0.00%     78.49% # Type of FU issued
system.cpu.iq.FU_type_0::MemRead             29662423     12.18%     90.67% # Type of FU issued
system.cpu.iq.FU_type_0::MemWrite            22716408      9.33%    100.00% # Type of FU issued
system.cpu.iq.FU_type_0::FloatMemRead               0      0.00%    100.00% # Type of FU issued
system.cpu.iq.FU_type_0::FloatMemWrite             16      0.00%    100.00% # Type of FU issued
system.cpu.iq.FU_type_0::IprAccess                  0      0.00%    100.00% # Type of FU issued
system.cpu.iq.FU_type_0::InstPrefetch               0      0.00%    100.00% # Type of FU issued
system.cpu.iq.FU_type_0::total              243509629                       # Type of FU issued
system.cpu.iq.rate                           1.541111                       # Inst issue rate
system.cpu.iq.fu_busy_cnt                    51544231                       # FU busy when requested
system.cpu.iq.fu_busy_rate                   0.211672                       # FU busy rate (busy events/executed inst)
system.cpu.iq.int_inst_queue_reads          696103341                       # Number of integer instruction queue reads
system.cpu.iq.int_inst_queue_writes         287276594                       # Number of integer instruction queue writes
system.cpu.iq.int_inst_queue_wakeup_accesses    239260793                       # Number of integer instruction queue wakeup accesses
system.cpu.iq.fp_inst_queue_reads                  44                       # Number of floating instruction queue reads
system.cpu.iq.fp_inst_queue_writes                 16                       # Number of floating instruction queue writes
system.cpu.iq.fp_inst_queue_wakeup_accesses           16                       # Number of floating instruction queue wakeup accesses
system.cpu.iq.vec_inst_queue_reads                  0                       # Number of vector instruction queue reads
system.cpu.iq.vec_inst_queue_writes                 0                       # Number of vector instruction queue writes
system.cpu.iq.vec_inst_queue_wakeup_accesses            0                       # Number of vector instruction queue wakeup accesses
system.cpu.iq.int_alu_accesses              295053822                       # Number of integer alu accesses
system.cpu.iq.fp_alu_accesses                      28                       # Number of floating point alu accesses
system.cpu.iq.vec_alu_accesses                      0                       # Number of vector alu accesses
system.cpu.iew.lsq.thread0.forwLoads           698094                       # Number of loads that had data forwarded from stores
system.cpu.iew.lsq.thread0.invAddrLoads             0                       # Number of loads ignored due to an invalid address
system.cpu.iew.lsq.thread0.squashedLoads      4396171                       # Number of loads squashed
system.cpu.iew.lsq.thread0.ignoredResponses         4590                       # Number of memory responses ignored because the instruction is squashed
system.cpu.iew.lsq.thread0.memOrderViolation        11301                       # Number of memory ordering violations
system.cpu.iew.lsq.thread0.squashedStores      2112965                       # Number of stores squashed
system.cpu.iew.lsq.thread0.invAddrSwpfs             0                       # Number of software prefetches ignored due to an invalid address
system.cpu.iew.lsq.thread0.blockedLoads             0                       # Number of blocked loads due to partial load-store forwarding
system.cpu.iew.lsq.thread0.rescheduledLoads      1065025                       # Number of loads that were rescheduled
system.cpu.iew.lsq.thread0.cacheBlocked         66105                       # Number of times an access to memory failed due to the cache being blocked
system.cpu.iew.iewIdleCycles                        0                       # Number of cycles IEW is idle
system.cpu.iew.iewSquashCycles                1689907                       # Number of cycles IEW is squashing
system.cpu.iew.iewBlockCycles                 3240575                       # Number of cycles IEW is blocking
system.cpu.iew.iewUnblockCycles                289874                       # Number of cycles IEW is unblocking
system.cpu.iew.iewDispatchedInsts           258599591                       # Number of instructions dispatched to IQ
system.cpu.iew.iewDispSquashedInsts                 0                       # Number of squashed instructions skipped by dispatch
system.cpu.iew.iewDispLoadInsts              30007371                       # Number of dispatched load instructions
system.cpu.iew.iewDispStoreInsts             23914247                       # Number of dispatched store instructions
system.cpu.iew.iewDispNonSpecInsts               6168                       # Number of dispatched non-speculative instructions
system.cpu.iew.iewIQFullEvents                  22100                       # Number of times the IQ has become full, causing a stall
system.cpu.iew.iewLSQFullEvents                252076                       # Number of times the LSQ has become full, causing a stall
system.cpu.iew.memOrderViolationEvents          11301                       # Number of memory order violations
system.cpu.iew.predictedTakenIncorrect        1018537                       # Number of branches that were predicted taken incorrectly
system.cpu.iew.predictedNotTakenIncorrect       734559                       # Number of branches that were predicted not taken incorrectly
system.cpu.iew.branchMispredicts              1753096                       # Number of branch mispredicts detected at execute
system.cpu.iew.iewExecutedInsts             241148034                       # Number of executed instructions
system.cpu.iew.iewExecLoadInsts              28799080                       # Number of load instructions executed
system.cpu.iew.iewExecSquashedInsts           2361595                       # Number of squashed instructions skipped in execute
system.cpu.iew.exec_swp                             0                       # number of swp insts executed
system.cpu.iew.exec_nop                            12                       # number of nop insts executed
system.cpu.iew.exec_refs                     51176415                       # number of memory reference insts executed
system.cpu.iew.exec_branches                 35908399                       # Number of branches executed
system.cpu.iew.exec_stores                   22377335                       # Number of stores executed
system.cpu.iew.exec_rate                     1.526165                       # Inst execution rate
system.cpu.iew.wb_sent                      239402238                       # cumulative count of insts sent to commit
system.cpu.iew.wb_count                     239260809                       # cumulative count of insts written-back
system.cpu.iew.wb_producers                 155907295                       # num instructions producing a value
system.cpu.iew.wb_consumers                 361849765                       # num instructions consuming a value
system.cpu.iew.wb_rate                       1.514221                       # insts written-back per cycle
system.cpu.iew.wb_fanout                     0.430862                       # average fanout of values written-back
system.cpu.commit.commitSquashedInsts        25449602                       # The number of squashed insts skipped by commit
system.cpu.commit.commitNonSpecStalls           11515                       # The number of times commit has been forced to stall to communicate backwards
system.cpu.commit.branchMispredicts           1679337                       # The number of times a branch was mispredicted
system.cpu.commit.committed_per_cycle::samples    151444425                       # Number of insts commited each cycle
system.cpu.commit.committed_per_cycle::mean     1.518272                       # Number of insts commited each cycle
system.cpu.commit.committed_per_cycle::stdev     1.820769                       # Number of insts commited each cycle
system.cpu.commit.committed_per_cycle::underflows            0      0.00%      0.00% # Number of insts commited each cycle
system.cpu.commit.committed_per_cycle::0     48910532     32.30%     32.30% # Number of insts commited each cycle
system.cpu.commit.committed_per_cycle::1     50244806     33.18%     65.47% # Number of insts commited each cycle
system.cpu.commit.committed_per_cycle::2     24644599     16.27%     81.75% # Number of insts commited each cycle
system.cpu.commit.committed_per_cycle::3      9551466      6.31%     88.05% # Number of insts commited each cycle
system.cpu.commit.committed_per_cycle::4      6396909      4.22%     92.28% # Number of insts commited each cycle
system.cpu.commit.committed_per_cycle::5      3560540      2.35%     94.63% # Number of insts commited each cycle
system.cpu.commit.committed_per_cycle::6      2643405      1.75%     96.37% # Number of insts commited each cycle
system.cpu.commit.committed_per_cycle::7      1442740      0.95%     97.33% # Number of insts commited each cycle
system.cpu.commit.committed_per_cycle::8      4049428      2.67%    100.00% # Number of insts commited each cycle
system.cpu.commit.committed_per_cycle::overflows            0      0.00%    100.00% # Number of insts commited each cycle
system.cpu.commit.committed_per_cycle::min_value            0                       # Number of insts commited each cycle
system.cpu.commit.committed_per_cycle::max_value            8                       # Number of insts commited each cycle
system.cpu.commit.committed_per_cycle::total    151444425                       # Number of insts commited each cycle
system.cpu.commit.committedInsts            198322379                       # Number of instructions committed
system.cpu.commit.committedOps              229933772                       # Number of ops (including micro ops) committed
system.cpu.commit.swp_count                         0                       # Number of s/w prefetches committed
system.cpu.commit.refs                       47412482                       # Number of memory references committed
system.cpu.commit.loads                      25611200                       # Number of loads committed
system.cpu.commit.membars                        5751                       # Number of memory barriers committed
system.cpu.commit.branches                   34643071                       # Number of branches committed
[...]
system.l2.blocked_cycles::no_mshrs                  0                       # number of cycles access was blocked
system.l2.blocked_cycles::no_targets                0                       # number of cycles access was blocked
system.l2.blocked::no_mshrs                         0                       # number of cycles access was blocked
system.l2.blocked::no_targets                       0                       # number of cycles access was blocked
system.l2.avg_blocked_cycles::no_mshrs            nan                       # average number of cycles each access was blocked
system.l2.avg_blocked_cycles::no_targets          nan                       # average number of cycles each access was blocked
system.l2.unused_prefetches                     11345                       # number of HardPF blocks evicted w/o reference
system.l2.writebacks::writebacks                45577                       # number of writebacks
system.l2.writebacks::total                     45577                       # number of writebacks
system.l2.ReadExReq_mshr_hits::cpu.data          2230                       # number of ReadExReq MSHR hits
system.l2.ReadExReq_mshr_hits::total             2230                       # number of ReadExReq MSHR hits
system.l2.ReadCleanReq_mshr_hits::cpu.inst            5                       # number of ReadCleanReq MSHR hits
system.l2.ReadCleanReq_mshr_hits::total             5                       # number of ReadCleanReq MSHR hits
system.l2.ReadSharedReq_mshr_hits::cpu.data          473                       # number of ReadSharedReq MSHR hits
system.l2.ReadSharedReq_mshr_hits::total          473                       # number of ReadSharedReq MSHR hits
system.l2.demand_mshr_hits::cpu.inst                5                       # number of demand (read+write) MSHR hits
system.l2.demand_mshr_hits::cpu.data             2703                       # number of demand (read+write) MSHR hits
system.l2.demand_mshr_hits::total                2708                       # number of demand (read+write) MSHR hits
system.l2.overall_mshr_hits::cpu.inst               5                       # number of overall MSHR hits
system.l2.overall_mshr_hits::cpu.data            2703                       # number of overall MSHR hits
system.l2.overall_mshr_hits::total               2708                       # number of overall MSHR hits
system.l2.HardPFReq_mshr_misses::l2.prefetcher       240982                       # number of HardPFReq MSHR misses
system.l2.HardPFReq_mshr_misses::total         240982                       # number of HardPFReq MSHR misses
system.l2.UpgradeReq_mshr_misses::cpu.data           21                       # number of UpgradeReq MSHR misses
system.l2.UpgradeReq_mshr_misses::total            21                       # number of UpgradeReq MSHR misses
system.l2.ReadExReq_mshr_misses::cpu.data        11458                       # number of ReadExReq MSHR misses
system.l2.ReadExReq_mshr_misses::total          11458                       # number of ReadExReq MSHR misses
system.l2.ReadCleanReq_mshr_misses::cpu.inst        18040                       # number of ReadCleanReq MSHR misses
system.l2.ReadCleanReq_mshr_misses::total        18040                       # number of ReadCleanReq MSHR misses
system.l2.ReadSharedReq_mshr_misses::cpu.data        27156                       # number of ReadSharedReq MSHR misses
system.l2.ReadSharedReq_mshr_misses::total        27156                       # number of ReadSharedReq MSHR misses
system.l2.demand_mshr_misses::cpu.inst          18040                       # number of demand (read+write) MSHR misses
system.l2.demand_mshr_misses::cpu.data          38614                       # number of demand (read+write) MSHR misses
system.l2.demand_mshr_misses::total             56654                       # number of demand (read+write) MSHR misses
system.l2.overall_mshr_misses::cpu.inst         18040                       # number of overall MSHR misses
system.l2.overall_mshr_misses::cpu.data         38614                       # number of overall MSHR misses
system.l2.overall_mshr_misses::l2.prefetcher       240982                       # number of overall MSHR misses
system.l2.overall_mshr_misses::total           297636                       # number of overall MSHR misses
system.l2.HardPFReq_mshr_miss_latency::l2.prefetcher   5149499374                       # number of HardPFReq MSHR miss cycles
system.l2.HardPFReq_mshr_miss_latency::total   5149499374                       # number of HardPFReq MSHR miss cycles
system.l2.UpgradeReq_mshr_miss_latency::cpu.data       324000                       # number of UpgradeReq MSHR miss cycles
system.l2.UpgradeReq_mshr_miss_latency::total       324000                       # number of UpgradeReq MSHR miss cycles
system.l2.ReadExReq_mshr_miss_latency::cpu.data    989738500                       # number of ReadExReq MSHR miss cycles
system.l2.ReadExReq_mshr_miss_latency::total    989738500                       # number of ReadExReq MSHR miss cycles
system.l2.ReadCleanReq_mshr_miss_latency::cpu.inst   1726627000                       # number of ReadCleanReq MSHR miss cycles
system.l2.ReadCleanReq_mshr_miss_latency::total   1726627000                       # number of ReadCleanReq MSHR miss cycles
system.l2.ReadSharedReq_mshr_miss_latency::cpu.data   2798762500                       # number of ReadSharedReq MSHR miss cycles
system.l2.ReadSharedReq_mshr_miss_latency::total   2798762500                       # number of ReadSharedReq MSHR miss cycles
system.l2.demand_mshr_miss_latency::cpu.inst   1726627000                       # number of demand (read+write) MSHR miss cycles
system.l2.demand_mshr_miss_latency::cpu.data   3788501000                       # number of demand (read+write) MSHR miss cycles
system.l2.demand_mshr_miss_latency::total   5515128000                       # number of demand (read+write) MSHR miss cycles
system.l2.overall_mshr_miss_latency::cpu.inst   1726627000                       # number of overall MSHR miss cycles
system.l2.overall_mshr_miss_latency::cpu.data   3788501000                       # number of overall MSHR miss cycles
system.l2.overall_mshr_miss_latency::l2.prefetcher   5149499374                       # number of overall MSHR miss cycles
system.l2.overall_mshr_miss_latency::total  10664627374                       # number of overall MSHR miss cycles
system.l2.HardPFReq_mshr_miss_rate::l2.prefetcher          inf                       # mshr miss rate for HardPFReq accesses
system.l2.HardPFReq_mshr_miss_rate::total          inf                       # mshr miss rate for HardPFReq accesses
system.l2.UpgradeReq_mshr_miss_rate::cpu.data            1                       # mshr miss rate for UpgradeReq accesses
system.l2.UpgradeReq_mshr_miss_rate::total            1                       # mshr miss rate for UpgradeReq accesses
system.l2.ReadExReq_mshr_miss_rate::cpu.data     0.061395                       # mshr miss rate for ReadExReq accesses
system.l2.ReadExReq_mshr_miss_rate::total     0.061395                       # mshr miss rate for ReadExReq accesses
system.l2.ReadCleanReq_mshr_miss_rate::cpu.inst     0.061570                       # mshr miss rate for ReadCleanReq accesses
system.l2.ReadCleanReq_mshr_miss_rate::total     0.061570                       # mshr miss rate for ReadCleanReq accesses
system.l2.ReadSharedReq_mshr_miss_rate::cpu.data     0.054105                       # mshr miss rate for ReadSharedReq accesses
system.l2.ReadSharedReq_mshr_miss_rate::total     0.054105                       # mshr miss rate for ReadSharedReq accesses
system.l2.demand_mshr_miss_rate::cpu.inst     0.061570                       # mshr miss rate for demand accesses
system.l2.demand_mshr_miss_rate::cpu.data     0.056081                       # mshr miss rate for demand accesses
system.l2.demand_mshr_miss_rate::total       0.057719                       # mshr miss rate for demand accesses
system.l2.overall_mshr_miss_rate::cpu.inst     0.061570                       # mshr miss rate for overall accesses
system.l2.overall_mshr_miss_rate::cpu.data     0.056081                       # mshr miss rate for overall accesses
system.l2.overall_mshr_miss_rate::l2.prefetcher          inf                       # mshr miss rate for overall accesses
system.l2.overall_mshr_miss_rate::total      0.303233                       # mshr miss rate for overall accesses
system.l2.HardPFReq_avg_mshr_miss_latency::l2.prefetcher 21368.813330                       # average HardPFReq mshr miss latency
system.l2.HardPFReq_avg_mshr_miss_latency::total 21368.813330                       # average HardPFReq mshr miss latency
system.l2.UpgradeReq_avg_mshr_miss_latency::cpu.data 15428.571429                       # average UpgradeReq mshr miss latency
system.l2.UpgradeReq_avg_mshr_miss_latency::total 15428.571429                       # average UpgradeReq mshr miss latency
system.l2.ReadExReq_avg_mshr_miss_latency::cpu.data 86379.691046                       # average ReadExReq mshr miss latency
system.l2.ReadExReq_avg_mshr_miss_latency::total 86379.691046                       # average ReadExReq mshr miss latency
system.l2.ReadCleanReq_avg_mshr_miss_latency::cpu.inst 95711.031042                       # average ReadCleanReq mshr miss latency
system.l2.ReadCleanReq_avg_mshr_miss_latency::total 95711.031042                       # average ReadCleanReq mshr miss latency
system.l2.ReadSharedReq_avg_mshr_miss_latency::cpu.data 103062.398733                       # average ReadSharedReq mshr miss latency
system.l2.ReadSharedReq_avg_mshr_miss_latency::total 103062.398733                       # average ReadSharedReq mshr miss latency
system.l2.demand_avg_mshr_miss_latency::cpu.inst 95711.031042                       # average overall mshr miss latency
system.l2.demand_avg_mshr_miss_latency::cpu.data 98112.109598                       # average overall mshr miss latency
system.l2.demand_avg_mshr_miss_latency::total 97347.548275                       # average overall mshr miss latency
system.l2.overall_avg_mshr_miss_latency::cpu.inst 95711.031042                       # average overall mshr miss latency
system.l2.overall_avg_mshr_miss_latency::cpu.data 98112.109598                       # average overall mshr miss latency
system.l2.overall_avg_mshr_miss_latency::l2.prefetcher 21368.813330                       # average overall mshr miss latency
system.l2.overall_avg_mshr_miss_latency::total 35831.107037                       # average overall mshr miss latency
system.membus.snoop_filter.tot_requests        215845                       # Total number of requests made to the snoop filter.
system.membus.snoop_filter.hit_single_requests       107851                       # Number of requests hitting in the snoop filter with a single holder of the requested data.
system.membus.snoop_filter.hit_multi_requests            0                       # Number of requests hitting in the snoop filter with multiple (>1) holders of the requested data.
system.membus.snoop_filter.tot_snoops               0                       # Total number of snoops made to the snoop filter.
system.membus.snoop_filter.hit_single_snoops            0                       # Number of snoops hitting in the snoop filter with a single holder of the requested data.
system.membus.snoop_filter.hit_multi_snoops            0                       # Number of snoops hitting in the snoop filter with multiple (>1) holders of the requested data.
system.membus.pwrStateResidencyTicks::UNDEFINED  79004571000                       # Cumulative time (in ticks) in various power states
system.membus.trans_dist::ReadResp             101670                       # Transaction distribution
system.membus.trans_dist::WritebackDirty        45576                       # Transaction distribution
system.membus.trans_dist::CleanEvict            57119                       # Transaction distribution
system.membus.trans_dist::UpgradeReq               22                       # Transaction distribution
system.membus.trans_dist::ReadExReq             11458                       # Transaction distribution
system.membus.trans_dist::ReadExResp            11458                       # Transaction distribution
system.membus.trans_dist::ReadCleanReq         101670                       # Transaction distribution
system.membus.pkt_count_system.l2.mem_side::system.mem_ctrls.port       328973                       # Packet count per connected master and slave (bytes)
system.membus.pkt_count::total                 328973                       # Packet count per connected master and slave (bytes)
system.membus.pkt_size_system.l2.mem_side::system.mem_ctrls.port     10157056                       # Cumulative packet size per connected master and slave (bytes)
system.membus.pkt_size::total                10157056                       # Cumulative packet size per connected master and slave (bytes)
system.membus.snoops                                0                       # Total snoops (count)
system.membus.snoopTraffic                          0                       # Total snoop traffic (bytes)
system.membus.snoop_fanout::samples            113150                       # Request fanout histogram
system.membus.snoop_fanout::mean                    0                       # Request fanout histogram
system.membus.snoop_fanout::stdev                   0                       # Request fanout histogram
system.membus.snoop_fanout::underflows              0      0.00%      0.00% # Request fanout histogram
system.membus.snoop_fanout::0                  113150    100.00%    100.00% # Request fanout histogram
system.membus.snoop_fanout::1                       0      0.00%    100.00% # Request fanout histogram
system.membus.snoop_fanout::overflows               0      0.00%    100.00% # Request fanout histogram
system.membus.snoop_fanout::min_value               0                       # Request fanout histogram
system.membus.snoop_fanout::max_value               0                       # Request fanout histogram
system.membus.snoop_fanout::total              113150                       # Request fanout histogram
system.membus.reqLayer0.occupancy           445542795                       # Layer occupancy (ticks)
system.membus.reqLayer0.utilization               0.6                       # Layer utilization (%)
system.membus.respLayer1.occupancy          595157917                       # Layer occupancy (ticks)
system.membus.respLayer1.utilization              0.8                       # Layer utilization (%)
system.tol2bus.snoop_filter.tot_requests      1961848                       # Total number of requests made to the snoop filter.
system.tol2bus.snoop_filter.hit_single_requests       980282                       # Number of requests hitting in the snoop filter with a single holder of the requested data.
system.tol2bus.snoop_filter.hit_multi_requests         5986                       # Number of requests hitting in the snoop filter with multiple (>1) holders of the requested data.
system.tol2bus.snoop_filter.tot_snoops         184527                       # Total number of snoops made to the snoop filter.
system.tol2bus.snoop_filter.hit_single_snoops       184527                       # Number of snoops hitting in the snoop filter with a single holder of the requested data.
system.tol2bus.snoop_filter.hit_multi_snoops            0                       # Number of snoops hitting in the snoop filter with multiple (>1) holders of the requested data.
system.tol2bus.pwrStateResidencyTicks::UNDEFINED  79004571000                       # Cumulative time (in ticks) in various power states
system.tol2bus.trans_dist::ReadResp            794937                       # Transaction distribution
system.tol2bus.trans_dist::WritebackDirty       582033                       # Transaction distribution
system.tol2bus.trans_dist::WritebackClean       443807                       # Transaction distribution
system.tol2bus.trans_dist::CleanEvict           57119                       # Transaction distribution
system.tol2bus.trans_dist::HardPFReq           262581                       # Transaction distribution
system.tol2bus.trans_dist::UpgradeReq              21                       # Transaction distribution
system.tol2bus.trans_dist::UpgradeResp             21                       # Transaction distribution
system.tol2bus.trans_dist::ReadExReq           186627                       # Transaction distribution
system.tol2bus.trans_dist::ReadExResp          186627                       # Transaction distribution
system.tol2bus.trans_dist::ReadCleanReq        293021                       # Transaction distribution
system.tol2bus.trans_dist::ReadSharedReq       501916                       # Transaction distribution
system.tol2bus.pkt_count_system.cpu.icache.mem_side::system.l2.cpu_side       878764                       # Packet count per connected master and slave (bytes)
system.tol2bus.pkt_count_system.cpu.dcache.mem_side::system.l2.cpu_side      2064647                       # Packet count per connected master and slave (bytes)
system.tol2bus.pkt_count::total               2943411                       # Packet count per connected master and slave (bytes)
system.tol2bus.pkt_size_system.cpu.icache.mem_side::system.l2.cpu_side     37487552                       # Cumulative packet size per connected master and slave (bytes)
system.tol2bus.pkt_size_system.cpu.dcache.mem_side::system.l2.cpu_side     88067968                       # Cumulative packet size per connected master and slave (bytes)
system.tol2bus.pkt_size::total              125555520                       # Cumulative packet size per connected master and slave (bytes)
system.tol2bus.snoops                          365299                       # Total snoops (count)
system.tol2bus.snoopTraffic                   2918336                       # Total snoop traffic (bytes)
system.tol2bus.snoop_fanout::samples          1346862                       # Request fanout histogram
system.tol2bus.snoop_fanout::mean            0.141464                       # Request fanout histogram
system.tol2bus.snoop_fanout::stdev           0.348499                       # Request fanout histogram
system.tol2bus.snoop_fanout::underflows             0      0.00%      0.00% # Request fanout histogram
system.tol2bus.snoop_fanout::0                1156330     85.85%     85.85% # Request fanout histogram
system.tol2bus.snoop_fanout::1                 190532     14.15%    100.00% # Request fanout histogram
system.tol2bus.snoop_fanout::2                      0      0.00%    100.00% # Request fanout histogram
system.tol2bus.snoop_fanout::3                      0      0.00%    100.00% # Request fanout histogram
system.tol2bus.snoop_fanout::4                      0      0.00%    100.00% # Request fanout histogram
system.tol2bus.snoop_fanout::overflows              0      0.00%    100.00% # Request fanout histogram
system.tol2bus.snoop_fanout::min_value              0                       # Request fanout histogram
system.tol2bus.snoop_fanout::max_value              1                       # Request fanout histogram
system.tol2bus.snoop_fanout::total            1346862                       # Request fanout histogram
system.tol2bus.reqLayer0.occupancy         1961187000                       # Layer occupancy (ticks)
system.tol2bus.reqLayer0.utilization              2.5                       # Layer utilization (%)
system.tol2bus.respLayer0.occupancy         439605851                       # Layer occupancy (ticks)
system.tol2bus.respLayer0.utilization             0.6                       # Layer utilization (%)
system.tol2bus.respLayer1.occupancy        1032859930                       # Layer occupancy (ticks)
system.tol2bus.respLayer1.utilization             1.3                       # Layer utilization (%)

---------- End Simulation Statistics   ----------
