
---------- Begin Simulation Statistics ----------
sim_seconds                                  1.671392                       # Number of seconds simulated
sim_ticks                                1671392364000                       # Number of ticks simulated
final_tick                               6471566079500                       # Number of ticks from beginning of simulation (restored from checkpoints and never reset)
sim_freq                                 1000000000000                       # Frequency of simulated ticks
host_inst_rate                                1360935                       # Simulator instruction rate (inst/s)
host_op_rate                                  3095901                       # Simulator op (including micro ops) rate (op/s)
host_tick_rate                             1508788963                       # Simulator tick rate (ticks/s)
host_mem_usage                                2331468                       # Number of bytes of host memory used
host_seconds                                  1107.77                       # Real time elapsed on the host
sim_insts                                  1507604580                       # Number of instructions simulated
sim_ops                                    3429549098                       # Number of ops (including micro ops) simulated
system.voltage_domain.voltage                       1                       # Voltage in Volts
system.clk_domain.clock                          1000                       # Clock period in ticks
system.mem_ctrls.pwrStateResidencyTicks::UNDEFINED 6471566079500                       # Cumulative time (in ticks) in various power states
system.mem_ctrls.bytes_read::l2.prefetcher       902464                       # Number of bytes read from this memory
system.mem_ctrls.bytes_read::switch_cpus0.inst           64                       # Number of bytes read from this memory
system.mem_ctrls.bytes_read::switch_cpus0.data           64                       # Number of bytes read from this memory
system.mem_ctrls.bytes_read::switch_cpus_10.inst         1664                       # Number of bytes read from this memory
system.mem_ctrls.bytes_read::switch_cpus_10.data        18432                       # Number of bytes read from this memory
system.mem_ctrls.bytes_read::switch_cpus_11.inst         5632                       # Number of bytes read from this memory
system.mem_ctrls.bytes_read::switch_cpus_11.data        20032                       # Number of bytes read from this memory
system.mem_ctrls.bytes_read::switch_cpus_12.inst          704                       # Number of bytes read from this memory
system.mem_ctrls.bytes_read::switch_cpus_12.data        12736                       # Number of bytes read from this memory
system.mem_ctrls.bytes_read::switch_cpus_13.dtb.walker           64                       # Number of bytes read from this memory
system.mem_ctrls.bytes_read::switch_cpus_13.inst          576                       # Number of bytes read from this memory
system.mem_ctrls.bytes_read::switch_cpus_13.data        11392                       # Number of bytes read from this memory
system.mem_ctrls.bytes_read::switch_cpus_14.inst         1216                       # Number of bytes read from this memory
system.mem_ctrls.bytes_read::switch_cpus_14.data        10944                       # Number of bytes read from this memory
system.mem_ctrls.bytes_read::switch_cpus_15.inst          384                       # Number of bytes read from this memory
system.mem_ctrls.bytes_read::switch_cpus_15.data        12608                       # Number of bytes read from this memory
system.mem_ctrls.bytes_read::switch_cpus_16.inst          576                       # Number of bytes read from this memory
system.mem_ctrls.bytes_read::switch_cpus_16.data         2240                       # Number of bytes read from this memory
system.mem_ctrls.bytes_read::switch_cpus_17.inst          448                       # Number of bytes read from this memory
system.mem_ctrls.bytes_read::switch_cpus_17.data        21184                       # Number of bytes read from this memory
system.mem_ctrls.bytes_read::total            1023424                       # Number of bytes read from this memory
system.mem_ctrls.bytes_inst_read::switch_cpus0.inst           64                       # Number of instructions bytes read from this memory
system.mem_ctrls.bytes_inst_read::switch_cpus_10.inst         1664                       # Number of instructions bytes read from this memory
system.mem_ctrls.bytes_inst_read::switch_cpus_11.inst         5632                       # Number of instructions bytes read from this memory
system.mem_ctrls.bytes_inst_read::switch_cpus_12.inst          704                       # Number of instructions bytes read from this memory
system.mem_ctrls.bytes_inst_read::switch_cpus_13.inst          576                       # Number of instructions bytes read from this memory
system.mem_ctrls.bytes_inst_read::switch_cpus_14.inst         1216                       # Number of instructions bytes read from this memory
system.mem_ctrls.bytes_inst_read::switch_cpus_15.inst          384                       # Number of instructions bytes read from this memory
system.mem_ctrls.bytes_inst_read::switch_cpus_16.inst          576                       # Number of instructions bytes read from this memory
system.mem_ctrls.bytes_inst_read::switch_cpus_17.inst          448                       # Number of instructions bytes read from this memory
system.mem_ctrls.bytes_inst_read::total         11264                       # Number of instructions bytes read from this memory
system.mem_ctrls.bytes_written::writebacks      1981952                       # Number of bytes written to this memory
system.mem_ctrls.bytes_written::total         1981952                       # Number of bytes written to this memory
system.mem_ctrls.num_reads::l2.prefetcher        14101                       # Number of read requests responded to by this memory
system.mem_ctrls.num_reads::switch_cpus0.inst            1                       # Number of read requests responded to by this memory
system.mem_ctrls.num_reads::switch_cpus0.data            1                       # Number of read requests responded to by this memory
system.mem_ctrls.num_reads::switch_cpus_10.inst           26                       # Number of read requests responded to by this memory
system.mem_ctrls.num_reads::switch_cpus_10.data          288                       # Number of read requests responded to by this memory
system.mem_ctrls.num_reads::switch_cpus_11.inst           88                       # Number of read requests responded to by this memory
system.mem_ctrls.num_reads::switch_cpus_11.data          313                       # Number of read requests responded to by this memory
system.mem_ctrls.num_reads::switch_cpus_12.inst           11                       # Number of read requests responded to by this memory
system.mem_ctrls.num_reads::switch_cpus_12.data          199                       # Number of read requests responded to by this memory
system.mem_ctrls.num_reads::switch_cpus_13.dtb.walker            1                       # Number of read requests responded to by this memory
system.mem_ctrls.num_reads::switch_cpus_13.inst            9                       # Number of read requests responded to by this memory
system.mem_ctrls.num_reads::switch_cpus_13.data          178                       # Number of read requests responded to by this memory
system.mem_ctrls.num_reads::switch_cpus_14.inst           19                       # Number of read requests responded to by this memory
system.mem_ctrls.num_reads::switch_cpus_14.data          171                       # Number of read requests responded to by this memory
system.mem_ctrls.num_reads::switch_cpus_15.inst            6                       # Number of read requests responded to by this memory
system.mem_ctrls.num_reads::switch_cpus_15.data          197                       # Number of read requests responded to by this memory
system.mem_ctrls.num_reads::switch_cpus_16.inst            9                       # Number of read requests responded to by this memory
system.mem_ctrls.num_reads::switch_cpus_16.data           35                       # Number of read requests responded to by this memory
system.mem_ctrls.num_reads::switch_cpus_17.inst            7                       # Number of read requests responded to by this memory
system.mem_ctrls.num_reads::switch_cpus_17.data          331                       # Number of read requests responded to by this memory
system.mem_ctrls.num_reads::total               15991                       # Number of read requests responded to by this memory
system.mem_ctrls.num_writes::writebacks         30968                       # Number of write requests responded to by this memory
system.mem_ctrls.num_writes::total              30968                       # Number of write requests responded to by this memory
system.mem_ctrls.bw_read::l2.prefetcher        539947                       # Total read bandwidth from this memory (bytes/s)
system.mem_ctrls.bw_read::switch_cpus0.inst           38                       # Total read bandwidth from this memory (bytes/s)
system.mem_ctrls.bw_read::switch_cpus0.data           38                       # Total read bandwidth from this memory (bytes/s)
system.mem_ctrls.bw_read::switch_cpus_10.inst          996                       # Total read bandwidth from this memory (bytes/s)
system.mem_ctrls.bw_read::switch_cpus_10.data        11028                       # Total read bandwidth from this memory (bytes/s)
system.mem_ctrls.bw_read::switch_cpus_11.inst         3370                       # Total read bandwidth from this memory (bytes/s)
system.mem_ctrls.bw_read::switch_cpus_11.data        11985                       # Total read bandwidth from this memory (bytes/s)
system.mem_ctrls.bw_read::switch_cpus_12.inst          421                       # Total read bandwidth from this memory (bytes/s)
system.mem_ctrls.bw_read::switch_cpus_12.data         7620                       # Total read bandwidth from this memory (bytes/s)
system.mem_ctrls.bw_read::switch_cpus_13.dtb.walker           38                       # Total read bandwidth from this memory (bytes/s)
system.mem_ctrls.bw_read::switch_cpus_13.inst          345                       # Total read bandwidth from this memory (bytes/s)
system.mem_ctrls.bw_read::switch_cpus_13.data         6816                       # Total read bandwidth from this memory (bytes/s)
system.mem_ctrls.bw_read::switch_cpus_14.inst          728                       # Total read bandwidth from this memory (bytes/s)
system.mem_ctrls.bw_read::switch_cpus_14.data         6548                       # Total read bandwidth from this memory (bytes/s)
system.mem_ctrls.bw_read::switch_cpus_15.inst          230                       # Total read bandwidth from this memory (bytes/s)
system.mem_ctrls.bw_read::switch_cpus_15.data         7543                       # Total read bandwidth from this memory (bytes/s)
system.mem_ctrls.bw_read::switch_cpus_16.inst          345                       # Total read bandwidth from this memory (bytes/s)
system.mem_ctrls.bw_read::switch_cpus_16.data         1340                       # Total read bandwidth from this memory (bytes/s)
system.mem_ctrls.bw_read::switch_cpus_17.inst          268                       # Total read bandwidth from this memory (bytes/s)
system.mem_ctrls.bw_read::switch_cpus_17.data        12674                       # Total read bandwidth from this memory (bytes/s)
system.mem_ctrls.bw_read::total                612318                       # Total read bandwidth from this memory (bytes/s)
system.mem_ctrls.bw_inst_read::switch_cpus0.inst           38                       # Instruction read bandwidth from this memory (bytes/s)
system.mem_ctrls.bw_inst_read::switch_cpus_10.inst          996                       # Instruction read bandwidth from this memory (bytes/s)
system.mem_ctrls.bw_inst_read::switch_cpus_11.inst         3370                       # Instruction read bandwidth from this memory (bytes/s)
system.mem_ctrls.bw_inst_read::switch_cpus_12.inst          421                       # Instruction read bandwidth from this memory (bytes/s)
system.mem_ctrls.bw_inst_read::switch_cpus_13.inst          345                       # Instruction read bandwidth from this memory (bytes/s)
system.mem_ctrls.bw_inst_read::switch_cpus_14.inst          728                       # Instruction read bandwidth from this memory (bytes/s)
system.mem_ctrls.bw_inst_read::switch_cpus_15.inst          230                       # Instruction read bandwidth from this memory (bytes/s)
system.mem_ctrls.bw_inst_read::switch_cpus_16.inst          345                       # Instruction read bandwidth from this memory (bytes/s)
system.mem_ctrls.bw_inst_read::switch_cpus_17.inst          268                       # Instruction read bandwidth from this memory (bytes/s)
system.mem_ctrls.bw_inst_read::total             6739                       # Instruction read bandwidth from this memory (bytes/s)
system.mem_ctrls.bw_write::writebacks         1185809                       # Write bandwidth from this memory (bytes/s)
system.mem_ctrls.bw_write::total              1185809                       # Write bandwidth from this memory (bytes/s)
system.mem_ctrls.bw_total::writebacks         1185809                       # Total bandwidth to/from this memory (bytes/s)
system.mem_ctrls.bw_total::l2.prefetcher       539947                       # Total bandwidth to/from this memory (bytes/s)
system.mem_ctrls.bw_total::switch_cpus0.inst           38                       # Total bandwidth to/from this memory (bytes/s)
system.mem_ctrls.bw_total::switch_cpus0.data           38                       # Total bandwidth to/from this memory (bytes/s)
system.mem_ctrls.bw_total::switch_cpus_10.inst          996                       # Total bandwidth to/from this memory (bytes/s)
system.mem_ctrls.bw_total::switch_cpus_10.data        11028                       # Total bandwidth to/from this memory (bytes/s)
system.mem_ctrls.bw_total::switch_cpus_11.inst         3370                       # Total bandwidth to/from this memory (bytes/s)
system.mem_ctrls.bw_total::switch_cpus_11.data        11985                       # Total bandwidth to/from this memory (bytes/s)
system.mem_ctrls.bw_total::switch_cpus_12.inst          421                       # Total bandwidth to/from this memory (bytes/s)
system.mem_ctrls.bw_total::switch_cpus_12.data         7620                       # Total bandwidth to/from this memory (bytes/s)
system.mem_ctrls.bw_total::switch_cpus_13.dtb.walker           38                       # Total bandwidth to/from this memory (bytes/s)
system.mem_ctrls.bw_total::switch_cpus_13.inst          345                       # Total bandwidth to/from this memory (bytes/s)
system.mem_ctrls.bw_total::switch_cpus_13.data         6816                       # Total bandwidth to/from this memory (bytes/s)
system.mem_ctrls.bw_total::switch_cpus_14.inst          728                       # Total bandwidth to/from this memory (bytes/s)
system.mem_ctrls.bw_total::switch_cpus_14.data         6548                       # Total bandwidth to/from this memory (bytes/s)
system.mem_ctrls.bw_total::switch_cpus_15.inst          230                       # Total bandwidth to/from this memory (bytes/s)
system.mem_ctrls.bw_total::switch_cpus_15.data         7543                       # Total bandwidth to/from this memory (bytes/s)
system.mem_ctrls.bw_total::switch_cpus_16.inst          345                       # Total bandwidth to/from this memory (bytes/s)
system.mem_ctrls.bw_total::switch_cpus_16.data         1340                       # Total bandwidth to/from this memory (bytes/s)
system.mem_ctrls.bw_total::switch_cpus_17.inst          268                       # Total bandwidth to/from this memory (bytes/s)
system.mem_ctrls.bw_total::switch_cpus_17.data        12674                       # Total bandwidth to/from this memory (bytes/s)
system.mem_ctrls.bw_total::total              1798127                       # Total bandwidth to/from this memory (bytes/s)
system.mem_ctrls.readReqs                       15989                       # Number of read requests accepted
system.mem_ctrls.writeReqs                      30966                       # Number of write requests accepted
system.mem_ctrls.readBursts                     15989                       # Number of DRAM read bursts, including those serviced by the write queue
system.mem_ctrls.writeBursts                    30966                       # Number of DRAM write bursts, including those merged in the write queue
system.mem_ctrls.bytesReadDRAM                1019904                       # Total number of bytes read from DRAM
system.mem_ctrls.bytesReadWrQ                    3392                       # Total number of bytes read from write queue
system.mem_ctrls.bytesWritten                 1980480                       # Total number of bytes written to DRAM
system.mem_ctrls.bytesReadSys                 1023296                       # Total read bytes from the system interface side
system.mem_ctrls.bytesWrittenSys              1981824                       # Total written bytes from the system interface side
system.mem_ctrls.servicedByWrQ                     53                       # Number of DRAM read bursts serviced by the write queue
system.mem_ctrls.mergedWrBursts                     0                       # Number of DRAM write bursts merged with an existing one
system.mem_ctrls.neitherReadNorWriteReqs            0                       # Number of requests that are neither read nor write
system.mem_ctrls.perBankRdBursts::0              1099                       # Per bank write bursts
system.mem_ctrls.perBankRdBursts::1               750                       # Per bank write bursts
system.mem_ctrls.perBankRdBursts::2               795                       # Per bank write bursts
system.mem_ctrls.perBankRdBursts::3               809                       # Per bank write bursts
system.mem_ctrls.perBankRdBursts::4              1281                       # Per bank write bursts
system.mem_ctrls.perBankRdBursts::5              1212                       # Per bank write bursts
system.mem_ctrls.perBankRdBursts::6              1080                       # Per bank write bursts
system.mem_ctrls.perBankRdBursts::7              1080                       # Per bank write bursts
system.mem_ctrls.perBankRdBursts::8               980                       # Per bank write bursts
system.mem_ctrls.perBankRdBursts::9               922                       # Per bank write bursts
system.mem_ctrls.perBankRdBursts::10              729                       # Per bank write bursts
system.mem_ctrls.perBankRdBursts::11              659                       # Per bank write bursts
system.mem_ctrls.perBankRdBursts::12             1401                       # Per bank write bursts
system.mem_ctrls.perBankRdBursts::13             1265                       # Per bank write bursts
system.mem_ctrls.perBankRdBursts::14             1090                       # Per bank write bursts
system.mem_ctrls.perBankRdBursts::15              784                       # Per bank write bursts
system.mem_ctrls.perBankWrBursts::0              1888                       # Per bank write bursts
system.mem_ctrls.perBankWrBursts::1              1628                       # Per bank write bursts
system.mem_ctrls.perBankWrBursts::2              1542                       # Per bank write bursts
system.mem_ctrls.perBankWrBursts::3              1626                       # Per bank write bursts
system.mem_ctrls.perBankWrBursts::4              1951                       # Per bank write bursts
system.mem_ctrls.perBankWrBursts::5              1823                       # Per bank write bursts
system.mem_ctrls.perBankWrBursts::6              1612                       # Per bank write bursts
system.mem_ctrls.perBankWrBursts::7              1711                       # Per bank write bursts
system.mem_ctrls.perBankWrBursts::8              2070                       # Per bank write bursts
system.mem_ctrls.perBankWrBursts::9              2246                       # Per bank write bursts
system.mem_ctrls.perBankWrBursts::10             2149                       # Per bank write bursts
system.mem_ctrls.perBankWrBursts::11             2054                       # Per bank write bursts
system.mem_ctrls.perBankWrBursts::12             2305                       # Per bank write bursts
system.mem_ctrls.perBankWrBursts::13             2270                       # Per bank write bursts
system.mem_ctrls.perBankWrBursts::14             2285                       # Per bank write bursts
system.mem_ctrls.perBankWrBursts::15             1785                       # Per bank write bursts
system.mem_ctrls.numRdRetry                         0                       # Number of times read queue was full causing retry
system.mem_ctrls.numWrRetry                         7                       # Number of times write queue was full causing retry
system.mem_ctrls.totGap                  1671315823000                       # Total gap between requests
system.mem_ctrls.readPktSize::0                     0                       # Read request sizes (log2)
system.mem_ctrls.readPktSize::1                     0                       # Read request sizes (log2)
system.mem_ctrls.readPktSize::2                     0                       # Read request sizes (log2)
system.mem_ctrls.readPktSize::3                     0                       # Read request sizes (log2)
system.mem_ctrls.readPktSize::4                     0                       # Read request sizes (log2)
system.mem_ctrls.readPktSize::5                     0                       # Read request sizes (log2)
system.mem_ctrls.readPktSize::6                 15989                       # Read request sizes (log2)
system.mem_ctrls.writePktSize::0                    0                       # Write request sizes (log2)
system.mem_ctrls.writePktSize::1                    0                       # Write request sizes (log2)
system.mem_ctrls.writePktSize::2                    0                       # Write request sizes (log2)
system.mem_ctrls.writePktSize::3                    0                       # Write request sizes (log2)
system.mem_ctrls.writePktSize::4                    0                       # Write request sizes (log2)
system.mem_ctrls.writePktSize::5                    0                       # Write request sizes (log2)
system.mem_ctrls.writePktSize::6                30966                       # Write request sizes (log2)
system.mem_ctrls.rdQLenPdf::0                    5198                       # What read queue length does an incoming req see
system.mem_ctrls.rdQLenPdf::1                    3193                       # What read queue length does an incoming req see
system.mem_ctrls.rdQLenPdf::2                    2548                       # What read queue length does an incoming req see
system.mem_ctrls.rdQLenPdf::3                    2126                       # What read queue length does an incoming req see
system.mem_ctrls.rdQLenPdf::4                    1655                       # What read queue length does an incoming req see
system.mem_ctrls.rdQLenPdf::5                     455                       # What read queue length does an incoming req see
system.mem_ctrls.rdQLenPdf::6                     282                       # What read queue length does an incoming req see
system.mem_ctrls.rdQLenPdf::7                     201                       # What read queue length does an incoming req see
system.mem_ctrls.rdQLenPdf::8                     112                       # What read queue length does an incoming req see
system.mem_ctrls.rdQLenPdf::9                      62                       # What read queue length does an incoming req see
system.mem_ctrls.rdQLenPdf::10                     36                       # What read queue length does an incoming req see
system.mem_ctrls.rdQLenPdf::11                     27                       # What read queue length does an incoming req see
system.mem_ctrls.rdQLenPdf::12                     17                       # What read queue length does an incoming req see
system.mem_ctrls.rdQLenPdf::13                      9                       # What read queue length does an incoming req see
system.mem_ctrls.rdQLenPdf::14                      4                       # What read queue length does an incoming req see
system.mem_ctrls.rdQLenPdf::15                      5                       # What read queue length does an incoming req see
system.mem_ctrls.rdQLenPdf::16                      3                       # What read queue length does an incoming req see
system.mem_ctrls.rdQLenPdf::17                      3                       # What read queue length does an incoming req see
system.mem_ctrls.rdQLenPdf::18                      0                       # What read queue length does an incoming req see
system.mem_ctrls.rdQLenPdf::19                      0                       # What read queue length does an incoming req see
system.mem_ctrls.rdQLenPdf::20                      0                       # What read queue length does an incoming req see
system.mem_ctrls.rdQLenPdf::21                      0                       # What read queue length does an incoming req see
system.mem_ctrls.rdQLenPdf::22                      0                       # What read queue length does an incoming req see
system.mem_ctrls.rdQLenPdf::23                      0                       # What read queue length does an incoming req see
system.mem_ctrls.rdQLenPdf::24                      0                       # What read queue length does an incoming req see
system.mem_ctrls.rdQLenPdf::25                      0                       # What read queue length does an incoming req see
system.mem_ctrls.rdQLenPdf::26                      0                       # What read queue length does an incoming req see
system.mem_ctrls.rdQLenPdf::27                      0                       # What read queue length does an incoming req see
system.mem_ctrls.rdQLenPdf::28                      0                       # What read queue length does an incoming req see
system.mem_ctrls.rdQLenPdf::29                      0                       # What read queue length does an incoming req see
system.mem_ctrls.rdQLenPdf::30                      0                       # What read queue length does an incoming req see
system.mem_ctrls.rdQLenPdf::31                      0                       # What read queue length does an incoming req see
system.mem_ctrls.wrQLenPdf::0                       1                       # What write queue length does an incoming req see
system.mem_ctrls.wrQLenPdf::1                       1                       # What write queue length does an incoming req see
system.mem_ctrls.wrQLenPdf::2                       1                       # What write queue length does an incoming req see
system.mem_ctrls.wrQLenPdf::3                       1                       # What write queue length does an incoming req see
system.mem_ctrls.wrQLenPdf::4                       1                       # What write queue length does an incoming req see
system.mem_ctrls.wrQLenPdf::5                       1                       # What write queue length does an incoming req see
system.mem_ctrls.wrQLenPdf::6                       1                       # What write queue length does an incoming req see
system.mem_ctrls.wrQLenPdf::7                       1                       # What write queue length does an incoming req see
system.mem_ctrls.wrQLenPdf::8                       1                       # What write queue length does an incoming req see
system.mem_ctrls.wrQLenPdf::9                       1                       # What write queue length does an incoming req see
system.mem_ctrls.wrQLenPdf::10                      1                       # What write queue length does an incoming req see
system.mem_ctrls.wrQLenPdf::11                      1                       # What write queue length does an incoming req see
system.mem_ctrls.wrQLenPdf::12                      1                       # What write queue length does an incoming req see
system.mem_ctrls.wrQLenPdf::13                      1                       # What write queue length does an incoming req see
system.mem_ctrls.wrQLenPdf::14                      1                       # What write queue length does an incoming req see
system.mem_ctrls.wrQLenPdf::15                    612                       # What write queue length does an incoming req see
system.mem_ctrls.wrQLenPdf::16                   1173                       # What write queue length does an incoming req see
system.mem_ctrls.wrQLenPdf::17                   1025                       # What write queue length does an incoming req see
system.mem_ctrls.wrQLenPdf::18                   1026                       # What write queue length does an incoming req see
system.mem_ctrls.wrQLenPdf::19                   1267                       # What write queue length does an incoming req see
system.mem_ctrls.wrQLenPdf::20                   1082                       # What write queue length does an incoming req see
system.mem_ctrls.wrQLenPdf::21                   1329                       # What write queue length does an incoming req see
system.mem_ctrls.wrQLenPdf::22                   1548                       # What write queue length does an incoming req see
system.mem_ctrls.wrQLenPdf::23                   2010                       # What write queue length does an incoming req see
system.mem_ctrls.wrQLenPdf::24                   1915                       # What write queue length does an incoming req see
system.mem_ctrls.wrQLenPdf::25                   2697                       # What write queue length does an incoming req see
system.mem_ctrls.wrQLenPdf::26                   2997                       # What write queue length does an incoming req see
system.mem_ctrls.wrQLenPdf::27                   1929                       # What write queue length does an incoming req see
system.mem_ctrls.wrQLenPdf::28                   1618                       # What write queue length does an incoming req see
system.mem_ctrls.wrQLenPdf::29                   1663                       # What write queue length does an incoming req see
system.mem_ctrls.wrQLenPdf::30                   1639                       # What write queue length does an incoming req see
system.mem_ctrls.wrQLenPdf::31                   1297                       # What write queue length does an incoming req see
system.mem_ctrls.wrQLenPdf::32                   1216                       # What write queue length does an incoming req see
system.mem_ctrls.wrQLenPdf::33                    269                       # What write queue length does an incoming req see
system.mem_ctrls.wrQLenPdf::34                    238                       # What write queue length does an incoming req see
system.mem_ctrls.wrQLenPdf::35                    176                       # What write queue length does an incoming req see
system.mem_ctrls.wrQLenPdf::36                    140                       # What write queue length does an incoming req see
system.mem_ctrls.wrQLenPdf::37                    111                       # What write queue length does an incoming req see
system.mem_ctrls.wrQLenPdf::38                    108                       # What write queue length does an incoming req see
system.mem_ctrls.wrQLenPdf::39                    126                       # What write queue length does an incoming req see
system.mem_ctrls.wrQLenPdf::40                    120                       # What write queue length does an incoming req see
system.mem_ctrls.wrQLenPdf::41                    114                       # What write queue length does an incoming req see
system.mem_ctrls.wrQLenPdf::42                    150                       # What write queue length does an incoming req see
system.mem_ctrls.wrQLenPdf::43                    130                       # What write queue length does an incoming req see
system.mem_ctrls.wrQLenPdf::44                    126                       # What write queue length does an incoming req see
system.mem_ctrls.wrQLenPdf::45                    121                       # What write queue length does an incoming req see
system.mem_ctrls.wrQLenPdf::46                     90                       # What write queue length does an incoming req see
system.mem_ctrls.wrQLenPdf::47                     86                       # What write queue length does an incoming req see
system.mem_ctrls.wrQLenPdf::48                     71                       # What write queue length does an incoming req see
system.mem_ctrls.wrQLenPdf::49                     88                       # What write queue length does an incoming req see
system.mem_ctrls.wrQLenPdf::50                     68                       # What write queue length does an incoming req see
system.mem_ctrls.wrQLenPdf::51                     66                       # What write queue length does an incoming req see
system.mem_ctrls.wrQLenPdf::52                     77                       # What write queue length does an incoming req see
system.mem_ctrls.wrQLenPdf::53                     60                       # What write queue length does an incoming req see
system.mem_ctrls.wrQLenPdf::54                     54                       # What write queue length does an incoming req see
system.mem_ctrls.wrQLenPdf::55                     70                       # What write queue length does an incoming req see
system.mem_ctrls.wrQLenPdf::56                     62                       # What write queue length does an incoming req see
system.mem_ctrls.wrQLenPdf::57                     36                       # What write queue length does an incoming req see
system.mem_ctrls.wrQLenPdf::58                     32                       # What write queue length does an incoming req see
system.mem_ctrls.wrQLenPdf::59                     39                       # What write queue length does an incoming req see
system.mem_ctrls.wrQLenPdf::60                     25                       # What write queue length does an incoming req see
system.mem_ctrls.wrQLenPdf::61                     29                       # What write queue length does an incoming req see
system.mem_ctrls.wrQLenPdf::62                     14                       # What write queue length does an incoming req see
system.mem_ctrls.wrQLenPdf::63                     12                       # What write queue length does an incoming req see
system.mem_ctrls.bytesPerActivate::samples        10900                       # Bytes accessed per row activation
system.mem_ctrls.bytesPerActivate::mean    275.264587                       # Bytes accessed per row activation
system.mem_ctrls.bytesPerActivate::gmean   157.806927                       # Bytes accessed per row activation
system.mem_ctrls.bytesPerActivate::stdev   326.473910                       # Bytes accessed per row activation
system.mem_ctrls.bytesPerActivate::0-127         4819     44.21%     44.21% # Bytes accessed per row activation
system.mem_ctrls.bytesPerActivate::128-255         2335     21.42%     65.63% # Bytes accessed per row activation
system.mem_ctrls.bytesPerActivate::256-383         1687     15.48%     81.11% # Bytes accessed per row activation
system.mem_ctrls.bytesPerActivate::384-511          247      2.27%     83.38% # Bytes accessed per row activation
system.mem_ctrls.bytesPerActivate::512-639          108      0.99%     84.37% # Bytes accessed per row activation
system.mem_ctrls.bytesPerActivate::640-767           92      0.84%     85.21% # Bytes accessed per row activation
system.mem_ctrls.bytesPerActivate::768-895           54      0.50%     85.71% # Bytes accessed per row activation
system.mem_ctrls.bytesPerActivate::896-1023           67      0.61%     86.32% # Bytes accessed per row activation
system.mem_ctrls.bytesPerActivate::1024-1151         1491     13.68%    100.00% # Bytes accessed per row activation
system.mem_ctrls.bytesPerActivate::total        10900                       # Bytes accessed per row activation
system.mem_ctrls.rdPerTurnAround::samples          908                       # Reads before turning the bus around for writes
system.mem_ctrls.rdPerTurnAround::mean      17.529736                       # Reads before turning the bus around for writes
system.mem_ctrls.rdPerTurnAround::stdev     23.074115                       # Reads before turning the bus around for writes
system.mem_ctrls.rdPerTurnAround::0-7             481     52.97%     52.97% # Reads before turning the bus around for writes
system.mem_ctrls.rdPerTurnAround::8-15             17      1.87%     54.85% # Reads before turning the bus around for writes
system.mem_ctrls.rdPerTurnAround::16-23            87      9.58%     64.43% # Reads before turning the bus around for writes
system.mem_ctrls.rdPerTurnAround::24-31           120     13.22%     77.64% # Reads before turning the bus around for writes
system.mem_ctrls.rdPerTurnAround::32-39            68      7.49%     85.13% # Reads before turning the bus around for writes
system.mem_ctrls.rdPerTurnAround::40-47            36      3.96%     89.10% # Reads before turning the bus around for writes
system.mem_ctrls.rdPerTurnAround::48-55            35      3.85%     92.95% # Reads before turning the bus around for writes
system.mem_ctrls.rdPerTurnAround::56-63            21      2.31%     95.26% # Reads before turning the bus around for writes
system.mem_ctrls.rdPerTurnAround::64-71            17      1.87%     97.14% # Reads before turning the bus around for writes
system.mem_ctrls.rdPerTurnAround::72-79             4      0.44%     97.58% # Reads before turning the bus around for writes
system.mem_ctrls.rdPerTurnAround::80-87             9      0.99%     98.57% # Reads before turning the bus around for writes
system.mem_ctrls.rdPerTurnAround::88-95             3      0.33%     98.90% # Reads before turning the bus around for writes
system.mem_ctrls.rdPerTurnAround::96-103            5      0.55%     99.45% # Reads before turning the bus around for writes
system.mem_ctrls.rdPerTurnAround::104-111            3      0.33%     99.78% # Reads before turning the bus around for writes
system.mem_ctrls.rdPerTurnAround::120-127            1      0.11%     99.89% # Reads before turning the bus around for writes
system.mem_ctrls.rdPerTurnAround::168-175            1      0.11%    100.00% # Reads before turning the bus around for writes
system.mem_ctrls.rdPerTurnAround::total           908                       # Reads before turning the bus around for writes
system.mem_ctrls.wrPerTurnAround::samples          908                       # Writes before turning the bus around for reads
system.mem_ctrls.wrPerTurnAround::mean      34.080396                       # Writes before turning the bus around for reads
system.mem_ctrls.wrPerTurnAround::gmean     28.127085                       # Writes before turning the bus around for reads
system.mem_ctrls.wrPerTurnAround::stdev     25.965526                       # Writes before turning the bus around for reads
system.mem_ctrls.wrPerTurnAround::16-19           369     40.64%     40.64% # Writes before turning the bus around for reads
system.mem_ctrls.wrPerTurnAround::20-23            88      9.69%     50.33% # Writes before turning the bus around for reads
system.mem_ctrls.wrPerTurnAround::24-27            24      2.64%     52.97% # Writes before turning the bus around for reads
system.mem_ctrls.wrPerTurnAround::28-31            34      3.74%     56.72% # Writes before turning the bus around for reads
system.mem_ctrls.wrPerTurnAround::32-35           151     16.63%     73.35% # Writes before turning the bus around for reads
system.mem_ctrls.wrPerTurnAround::36-39            21      2.31%     75.66% # Writes before turning the bus around for reads
system.mem_ctrls.wrPerTurnAround::40-43            16      1.76%     77.42% # Writes before turning the bus around for reads
system.mem_ctrls.wrPerTurnAround::44-47            10      1.10%     78.52% # Writes before turning the bus around for reads
system.mem_ctrls.wrPerTurnAround::48-51             9      0.99%     79.52% # Writes before turning the bus around for reads
system.mem_ctrls.wrPerTurnAround::52-55             5      0.55%     80.07% # Writes before turning the bus around for reads
system.mem_ctrls.wrPerTurnAround::56-59             2      0.22%     80.29% # Writes before turning the bus around for reads
system.mem_ctrls.wrPerTurnAround::60-63             6      0.66%     80.95% # Writes before turning the bus around for reads
system.mem_ctrls.wrPerTurnAround::64-67           126     13.88%     94.82% # Writes before turning the bus around for reads
system.mem_ctrls.wrPerTurnAround::68-71             4      0.44%     95.26% # Writes before turning the bus around for reads
system.mem_ctrls.wrPerTurnAround::72-75             2      0.22%     95.48% # Writes before turning the bus around for reads
system.mem_ctrls.wrPerTurnAround::76-79             8      0.88%     96.37% # Writes before turning the bus around for reads
system.mem_ctrls.wrPerTurnAround::80-83             5      0.55%     96.92% # Writes before turning the bus around for reads
system.mem_ctrls.wrPerTurnAround::88-91             1      0.11%     97.03% # Writes before turning the bus around for reads
system.mem_ctrls.wrPerTurnAround::92-95             1      0.11%     97.14% # Writes before turning the bus around for reads
system.mem_ctrls.wrPerTurnAround::96-99             4      0.44%     97.58% # Writes before turning the bus around for reads
system.mem_ctrls.wrPerTurnAround::100-103            1      0.11%     97.69% # Writes before turning the bus around for reads
system.mem_ctrls.wrPerTurnAround::108-111            6      0.66%     98.35% # Writes before turning the bus around for reads
system.mem_ctrls.wrPerTurnAround::128-131            4      0.44%     98.79% # Writes before turning the bus around for reads
system.mem_ctrls.wrPerTurnAround::132-135            2      0.22%     99.01% # Writes before turning the bus around for reads
system.mem_ctrls.wrPerTurnAround::160-163            1      0.11%     99.12% # Writes before turning the bus around for reads
system.mem_ctrls.wrPerTurnAround::172-175            1      0.11%     99.23% # Writes before turning the bus around for reads
system.mem_ctrls.wrPerTurnAround::180-183            1      0.11%     99.34% # Writes before turning the bus around for reads
system.mem_ctrls.wrPerTurnAround::188-191            2      0.22%     99.56% # Writes before turning the bus around for reads
system.mem_ctrls.wrPerTurnAround::192-195            4      0.44%    100.00% # Writes before turning the bus around for reads
system.mem_ctrls.wrPerTurnAround::total           908                       # Writes before turning the bus around for reads
system.mem_ctrls.totQLat                   1059736428                       # Total ticks spent queuing
system.mem_ctrls.totMemAccLat              1358536428                       # Total ticks spent from burst creation until serviced by the DRAM
system.mem_ctrls.totBusLat                   79680000                       # Total ticks spent in databus transfers
system.mem_ctrls.avgQLat                     66499.52                       # Average queueing delay per DRAM burst
system.mem_ctrls.avgBusLat                    5000.00                       # Average bus latency per DRAM burst
system.mem_ctrls.avgMemAccLat                85249.52                       # Average memory access latency per DRAM burst
system.mem_ctrls.avgRdBW                         0.61                       # Average DRAM read bandwidth in MiByte/s
system.mem_ctrls.avgWrBW                         1.18                       # Average achieved write bandwidth in MiByte/s
system.mem_ctrls.avgRdBWSys                      0.61                       # Average system read bandwidth in MiByte/s
system.mem_ctrls.avgWrBWSys                      1.19                       # Average system write bandwidth in MiByte/s
system.mem_ctrls.peakBW                      12800.00                       # Theoretical peak bandwidth in MiByte/s
system.mem_ctrls.busUtil                         0.01                       # Data bus utilization in percentage
system.mem_ctrls.busUtilRead                     0.00                       # Data bus utilization in percentage for reads
system.mem_ctrls.busUtilWrite                    0.01                       # Data bus utilization in percentage for writes
system.mem_ctrls.avgRdQLen                       1.19                       # Average read queue length when enqueuing
system.mem_ctrls.avgWrQLen                      22.72                       # Average write queue length when enqueuing
system.mem_ctrls.readRowHits                    11346                       # Number of row buffer hits during reads
system.mem_ctrls.writeRowHits                   24635                       # Number of row buffer hits during writes
system.mem_ctrls.readRowHitRate                 71.20                       # Row buffer hit rate for reads
system.mem_ctrls.writeRowHitRate                79.55                       # Row buffer hit rate for writes
system.mem_ctrls.avgGap                   35593990.48                       # Average gap between requests
system.mem_ctrls.pageHitRate                    76.72                       # Row buffer hit rate, read and write combined
system.mem_ctrls_0.actEnergy                 38077620                       # Energy for activate commands per rank (pJ)
system.mem_ctrls_0.preEnergy                 20238735                       # Energy for precharge commands per rank (pJ)
system.mem_ctrls_0.readEnergy                57876840                       # Energy for read commands per rank (pJ)
system.mem_ctrls_0.writeEnergy               71936820                       # Energy for write commands per rank (pJ)
system.mem_ctrls_0.refreshEnergy         720358080.000000                       # Energy for refresh commands per rank (pJ)
system.mem_ctrls_0.actBackEnergy            420951270                       # Energy for active background per rank (pJ)
system.mem_ctrls_0.preBackEnergy             44707200                       # Energy for precharge background per rank (pJ)
system.mem_ctrls_0.actPowerDownEnergy      1408055040                       # Energy for active power-down per rank (pJ)
system.mem_ctrls_0.prePowerDownEnergy      1031079840                       # Energy for precharge power-down per rank (pJ)
system.mem_ctrls_0.selfRefreshEnergy     399670147800                       # Energy for self refresh per rank (pJ)
system.mem_ctrls_0.totalEnergy           403483594275                       # Total energy per rank (pJ)
system.mem_ctrls_0.averagePower            241.405670                       # Core power per rank (mW)
system.mem_ctrls_0.totalIdleTime         1670291997149                       # Total Idle time Per DRAM Rank
system.mem_ctrls_0.memoryStateTime::IDLE     88314498                       # Time in different power states
system.mem_ctrls_0.memoryStateTime::REF     306646000                       # Time in different power states
system.mem_ctrls_0.memoryStateTime::SREF 1664555572250                       # Time in different power states
system.mem_ctrls_0.memoryStateTime::PRE_PDN   2685096701                       # Time in different power states
system.mem_ctrls_0.memoryStateTime::ACT     644996355                       # Time in different power states
system.mem_ctrls_0.memoryStateTime::ACT_PDN   3087867696                       # Time in different power states
system.mem_ctrls_1.actEnergy                 39748380                       # Energy for activate commands per rank (pJ)
system.mem_ctrls_1.preEnergy                 21126765                       # Energy for precharge commands per rank (pJ)
system.mem_ctrls_1.readEnergy                55906200                       # Energy for read commands per rank (pJ)
system.mem_ctrls_1.writeEnergy               89596080                       # Energy for write commands per rank (pJ)
system.mem_ctrls_1.refreshEnergy         744329040.000000                       # Energy for refresh commands per rank (pJ)
system.mem_ctrls_1.actBackEnergy            444712860                       # Energy for active background per rank (pJ)
system.mem_ctrls_1.preBackEnergy             46164480                       # Energy for precharge background per rank (pJ)
system.mem_ctrls_1.actPowerDownEnergy      1503450240                       # Energy for active power-down per rank (pJ)
system.mem_ctrls_1.prePowerDownEnergy      1034684160                       # Energy for precharge power-down per rank (pJ)
system.mem_ctrls_1.selfRefreshEnergy     399606396060                       # Energy for self refresh per rank (pJ)
system.mem_ctrls_1.totalEnergy           403586231265                       # Total energy per rank (pJ)
system.mem_ctrls_1.averagePower            241.467079                       # Core power per rank (mW)
system.mem_ctrls_1.totalIdleTime         1560027139354                       # Total Idle time Per DRAM Rank
system.mem_ctrls_1.memoryStateTime::IDLE     90772243                       # Time in different power states
system.mem_ctrls_1.memoryStateTime::REF     316804000                       # Time in different power states
system.mem_ctrls_1.memoryStateTime::SREF 1664280909500                       # Time in different power states
system.mem_ctrls_1.memoryStateTime::PRE_PDN   2694557000                       # Time in different power states
system.mem_ctrls_1.memoryStateTime::ACT     688404404                       # Time in different power states
system.mem_ctrls_1.memoryStateTime::ACT_PDN   3297046353                       # Time in different power states
system.pwrStateResidencyTicks::UNDEFINED 6471566079500                       # Cumulative time (in ticks) in various power states
system.apicbridge.pwrStateResidencyTicks::UNDEFINED 6471566079500                       # Cumulative time (in ticks) in various power states
system.bridge.pwrStateResidencyTicks::UNDEFINED 6471566079500                       # Cumulative time (in ticks) in various power states
system.cpu_voltage_domain.voltage                   1                       # Voltage in Volts
system.cpu_clk_domain.clock                       500                       # Clock period in ticks
system.cpu0.dtb.walker.pwrStateResidencyTicks::UNDEFINED 6471566079500                       # Cumulative time (in ticks) in various power states
system.cpu0.dtb.rdAccesses                          0                       # TLB accesses on read requests
system.cpu0.dtb.wrAccesses                          0                       # TLB accesses on write requests
system.cpu0.dtb.rdMisses                            0                       # TLB misses on read requests
system.cpu0.dtb.wrMisses                            0                       # TLB misses on write requests
system.cpu0.apic_clk_domain.clock                8000                       # Clock period in ticks
system.cpu0.interrupts.pwrStateResidencyTicks::UNDEFINED 6471566079500                       # Cumulative time (in ticks) in various power states
system.cpu0.itb.walker.pwrStateResidencyTicks::UNDEFINED 6471566079500                       # Cumulative time (in ticks) in various power states
system.cpu0.itb.rdAccesses                          0                       # TLB accesses on read requests
system.cpu0.itb.wrAccesses                          0                       # TLB accesses on write requests
system.cpu0.itb.rdMisses                            0                       # TLB misses on read requests
system.cpu0.itb.wrMisses                            0                       # TLB misses on write requests
system.cpu0.pwrStateResidencyTicks::OFF  6471566077500                       # Cumulative time (in ticks) in various power states
system.cpu0.numCycles                               0                       # number of cpu cycles simulated
system.cpu0.numWorkItemsStarted                     0                       # number of work items this cpu started
system.cpu0.numWorkItemsCompleted                   0                       # number of work items this cpu completed
system.cpu0.kern.inst.arm                           0                       # number of arm instructions executed
system.cpu0.kern.inst.quiesce                       0                       # number of quiesce instructions executed
system.cpu0.committedInsts                          0                       # Number of instructions committed
system.cpu0.committedOps                            0                       # Number of ops (including micro ops) committed
system.cpu0.num_int_alu_accesses                    0                       # Number of integer alu accesses
system.cpu0.num_fp_alu_accesses                     0                       # Number of float alu accesses
system.cpu0.num_vec_alu_accesses                    0                       # Number of vector alu accesses
system.cpu0.num_func_calls                          0                       # number of times a function call or return occured
system.cpu0.num_conditional_control_insts            0                       # number of instructions that are conditional controls
system.cpu0.num_int_insts                           0                       # number of integer instructions
system.cpu0.num_fp_insts                            0                       # number of float instructions
system.cpu0.num_vec_insts                           0                       # number of vector instructions
system.cpu0.num_int_register_reads                  0                       # number of times the integer registers were read
system.cpu0.num_int_register_writes                 0                       # number of times the integer registers were written
system.cpu0.num_fp_register_reads                   0                       # number of times the floating registers were read
system.cpu0.num_fp_register_writes                  0                       # number of times the floating registers were written
system.cpu0.num_vec_register_reads                  0                       # number of times the vector registers were read
system.cpu0.num_vec_register_writes                 0                       # number of times the vector registers were written
system.cpu0.num_mem_refs                            0                       # number of memory refs
system.cpu0.num_load_insts                          0                       # Number of load instructions
system.cpu0.num_store_insts                         0                       # Number of store instructions
system.cpu0.num_idle_cycles                         0                       # Number of idle cycles
system.cpu0.num_busy_cycles                         0                       # Number of busy cycles
system.cpu0.not_idle_fraction                       1                       # Percentage of non-idle cycles
system.cpu0.idle_fraction                           0                       # Percentage of idle cycles
system.cpu0.op_class::No_OpClass                    0                       # Class of executed instruction
system.cpu0.op_class::IntAlu                        0                       # Class of executed instruction
system.cpu0.op_class::IntMult                       0                       # Class of executed instruction
system.cpu0.op_class::IntDiv                        0                       # Class of executed instruction
system.cpu0.op_class::FloatAdd                      0                       # Class of executed instruction
system.cpu0.op_class::FloatCmp                      0                       # Class of executed instruction
system.cpu0.op_class::FloatCvt                      0                       # Class of executed instruction
system.cpu0.op_class::FloatMult                     0                       # Class of executed instruction
system.cpu0.op_class::FloatMultAcc                  0                       # Class of executed instruction
system.cpu0.op_class::FloatDiv                      0                       # Class of executed instruction
system.cpu0.op_class::FloatMisc                     0                       # Class of executed instruction
system.cpu0.op_class::FloatSqrt                     0                       # Class of executed instruction
system.cpu0.op_class::SimdAdd                       0                       # Class of executed instruction
system.cpu0.op_class::SimdAddAcc                    0                       # Class of executed instruction
system.cpu0.op_class::SimdAlu                       0                       # Class of executed instruction
system.cpu0.op_class::SimdCmp                       0                       # Class of executed instruction
system.cpu0.op_class::SimdCvt                       0                       # Class of executed instruction
system.cpu0.op_class::SimdMisc                      0                       # Class of executed instruction
system.cpu0.op_class::SimdMult                      0                       # Class of executed instruction
system.cpu0.op_class::SimdMultAcc                   0                       # Class of executed instruction
system.cpu0.op_class::SimdShift                     0                       # Class of executed instruction
system.cpu0.op_class::SimdShiftAcc                  0                       # Class of executed instruction
system.cpu0.op_class::SimdSqrt                      0                       # Class of executed instruction
system.cpu0.op_class::SimdFloatAdd                  0                       # Class of executed instruction
system.cpu0.op_class::SimdFloatAlu                  0                       # Class of executed instruction
system.cpu0.op_class::SimdFloatCmp                  0                       # Class of executed instruction
system.cpu0.op_class::SimdFloatCvt                  0                       # Class of executed instruction
system.cpu0.op_class::SimdFloatDiv                  0                       # Class of executed instruction
system.cpu0.op_class::SimdFloatMisc                 0                       # Class of executed instruction
system.cpu0.op_class::SimdFloatMult                 0                       # Class of executed instruction
system.cpu0.op_class::SimdFloatMultAcc              0                       # Class of executed instruction
system.cpu0.op_class::SimdFloatSqrt                 0                       # Class of executed instruction
system.cpu0.op_class::MemRead                       0                       # Class of executed instruction
system.cpu0.op_class::MemWrite                      0                       # Class of executed instruction
system.cpu0.op_class::FloatMemRead                  0                       # Class of executed instruction
system.cpu0.op_class::FloatMemWrite                 0                       # Class of executed instruction
system.cpu0.op_class::IprAccess                     0                       # Class of executed instruction
system.cpu0.op_class::InstPrefetch                  0                       # Class of executed instruction
system.cpu0.op_class::total                         0                       # Class of executed instruction
system.cpu0.dcache.tags.pwrStateResidencyTicks::UNDEFINED 6471566079500                       # Cumulative time (in ticks) in various power states
system.cpu0.dcache.tags.replacements            18828                       # number of replacements
system.cpu0.dcache.tags.tagsinuse          875.285767                       # Cycle average of tags in use
system.cpu0.dcache.tags.total_refs            1061788                       # Total number of references to valid blocks.
system.cpu0.dcache.tags.sampled_refs            19802                       # Sample count of references to valid blocks.
system.cpu0.dcache.tags.avg_refs            53.620240                       # Average number of references to valid blocks.
system.cpu0.dcache.tags.warmup_cycle                0                       # Cycle when the warmup percentage was hit.
system.cpu0.dcache.tags.occ_blocks::switch_cpus0.data    28.980878                       # Average occupied blocks per requestor
system.cpu0.dcache.tags.occ_blocks::switch_cpus_10.data   846.304889                       # Average occupied blocks per requestor
system.cpu0.dcache.tags.occ_percent::switch_cpus0.data     0.028302                       # Average percentage of cache occupancy
system.cpu0.dcache.tags.occ_percent::switch_cpus_10.data     0.826470                       # Average percentage of cache occupancy
system.cpu0.dcache.tags.occ_percent::total     0.854771                       # Average percentage of cache occupancy
system.cpu0.dcache.tags.occ_task_id_blocks::1024          974                       # Occupied blocks per task id
system.cpu0.dcache.tags.age_task_id_blocks_1024::2           16                       # Occupied blocks per task id
system.cpu0.dcache.tags.age_task_id_blocks_1024::4          958                       # Occupied blocks per task id
system.cpu0.dcache.tags.occ_task_id_percent::1024     0.951172                       # Percentage of cache occupancy per task id
system.cpu0.dcache.tags.tag_accesses          2246504                       # Number of tag accesses
system.cpu0.dcache.tags.data_accesses         2246504                       # Number of data accesses
system.cpu0.dcache.pwrStateResidencyTicks::UNDEFINED 6471566079500                       # Cumulative time (in ticks) in various power states
system.cpu0.dcache.ReadReq_hits::switch_cpus0.data         5744                       # number of ReadReq hits
system.cpu0.dcache.ReadReq_hits::switch_cpus_10.data       662310                       # number of ReadReq hits
system.cpu0.dcache.ReadReq_hits::total         668054                       # number of ReadReq hits
system.cpu0.dcache.WriteReq_hits::switch_cpus0.data         3169                       # number of WriteReq hits
system.cpu0.dcache.WriteReq_hits::switch_cpus_10.data       409740                       # number of WriteReq hits
system.cpu0.dcache.WriteReq_hits::total        412909                       # number of WriteReq hits
system.cpu0.dcache.SoftPFReq_hits::switch_cpus0.data            6                       # number of SoftPFReq hits
system.cpu0.dcache.SoftPFReq_hits::switch_cpus_10.data          117                       # number of SoftPFReq hits
system.cpu0.dcache.SoftPFReq_hits::total          123                       # number of SoftPFReq hits
system.cpu0.dcache.demand_hits::switch_cpus0.data         8913                       # number of demand (read+write) hits
system.cpu0.dcache.demand_hits::switch_cpus_10.data      1072050                       # number of demand (read+write) hits
system.cpu0.dcache.demand_hits::total         1080963                       # number of demand (read+write) hits
system.cpu0.dcache.overall_hits::switch_cpus0.data         8919                       # number of overall hits
system.cpu0.dcache.overall_hits::switch_cpus_10.data      1072167                       # number of overall hits
system.cpu0.dcache.overall_hits::total        1081086                       # number of overall hits
system.cpu0.dcache.ReadReq_misses::switch_cpus0.data           96                       # number of ReadReq misses
system.cpu0.dcache.ReadReq_misses::switch_cpus_10.data        21233                       # number of ReadReq misses
system.cpu0.dcache.ReadReq_misses::total        21329                       # number of ReadReq misses
system.cpu0.dcache.WriteReq_misses::switch_cpus0.data           59                       # number of WriteReq misses
system.cpu0.dcache.WriteReq_misses::switch_cpus_10.data         8056                       # number of WriteReq misses
system.cpu0.dcache.WriteReq_misses::total         8115                       # number of WriteReq misses
system.cpu0.dcache.SoftPFReq_misses::switch_cpus_10.data          421                       # number of SoftPFReq misses
system.cpu0.dcache.SoftPFReq_misses::total          421                       # number of SoftPFReq misses
system.cpu0.dcache.demand_misses::switch_cpus0.data          155                       # number of demand (read+write) misses
system.cpu0.dcache.demand_misses::switch_cpus_10.data        29289                       # number of demand (read+write) misses
system.cpu0.dcache.demand_misses::total         29444                       # number of demand (read+write) misses
system.cpu0.dcache.overall_misses::switch_cpus0.data          155                       # number of overall misses
system.cpu0.dcache.overall_misses::switch_cpus_10.data        29710                       # number of overall misses
system.cpu0.dcache.overall_misses::total        29865                       # number of overall misses
system.cpu0.dcache.ReadReq_miss_latency::switch_cpus_10.data    198051500                       # number of ReadReq miss cycles
system.cpu0.dcache.ReadReq_miss_latency::total    198051500                       # number of ReadReq miss cycles
system.cpu0.dcache.WriteReq_miss_latency::switch_cpus_10.data     97824500                       # number of WriteReq miss cycles
system.cpu0.dcache.WriteReq_miss_latency::total     97824500                       # number of WriteReq miss cycles
system.cpu0.dcache.demand_miss_latency::switch_cpus_10.data    295876000                       # number of demand (read+write) miss cycles
system.cpu0.dcache.demand_miss_latency::total    295876000                       # number of demand (read+write) miss cycles
system.cpu0.dcache.overall_miss_latency::switch_cpus_10.data    295876000                       # number of overall miss cycles
system.cpu0.dcache.overall_miss_latency::total    295876000                       # number of overall miss cycles
system.cpu0.dcache.ReadReq_accesses::switch_cpus0.data         5840                       # number of ReadReq accesses(hits+misses)
system.cpu0.dcache.ReadReq_accesses::switch_cpus_10.data       683543                       # number of ReadReq accesses(hits+misses)
system.cpu0.dcache.ReadReq_accesses::total       689383                       # number of ReadReq accesses(hits+misses)
system.cpu0.dcache.WriteReq_accesses::switch_cpus0.data         3228                       # number of WriteReq accesses(hits+misses)
system.cpu0.dcache.WriteReq_accesses::switch_cpus_10.data       417796                       # number of WriteReq accesses(hits+misses)
system.cpu0.dcache.WriteReq_accesses::total       421024                       # number of WriteReq accesses(hits+misses)
system.cpu0.dcache.SoftPFReq_accesses::switch_cpus0.data            6                       # number of SoftPFReq accesses(hits+misses)
system.cpu0.dcache.SoftPFReq_accesses::switch_cpus_10.data          538                       # number of SoftPFReq accesses(hits+misses)
system.cpu0.dcache.SoftPFReq_accesses::total          544                       # number of SoftPFReq accesses(hits+misses)
system.cpu0.dcache.demand_accesses::switch_cpus0.data         9068                       # number of demand (read+write) accesses
system.cpu0.dcache.demand_accesses::switch_cpus_10.data      1101339                       # number of demand (read+write) accesses
system.cpu0.dcache.demand_accesses::total      1110407                       # number of demand (read+write) accesses
system.cpu0.dcache.overall_accesses::switch_cpus0.data         9074                       # number of overall (read+write) accesses
system.cpu0.dcache.overall_accesses::switch_cpus_10.data      1101877                       # number of overall (read+write) accesses
system.cpu0.dcache.overall_accesses::total      1110951                       # number of overall (read+write) accesses
system.cpu0.dcache.ReadReq_miss_rate::switch_cpus0.data     0.016438                       # miss rate for ReadReq accesses
system.cpu0.dcache.ReadReq_miss_rate::switch_cpus_10.data     0.031063                       # miss rate for ReadReq accesses
system.cpu0.dcache.ReadReq_miss_rate::total     0.030939                       # miss rate for ReadReq accesses
system.cpu0.dcache.WriteReq_miss_rate::switch_cpus0.data     0.018278                       # miss rate for WriteReq accesses
system.cpu0.dcache.WriteReq_miss_rate::switch_cpus_10.data     0.019282                       # miss rate for WriteReq accesses
system.cpu0.dcache.WriteReq_miss_rate::total     0.019274                       # miss rate for WriteReq accesses
system.cpu0.dcache.SoftPFReq_miss_rate::switch_cpus_10.data     0.782528                       # miss rate for SoftPFReq accesses
system.cpu0.dcache.SoftPFReq_miss_rate::total     0.773897                       # miss rate for SoftPFReq accesses
system.cpu0.dcache.demand_miss_rate::switch_cpus0.data     0.017093                       # miss rate for demand accesses
system.cpu0.dcache.demand_miss_rate::switch_cpus_10.data     0.026594                       # miss rate for demand accesses
system.cpu0.dcache.demand_miss_rate::total     0.026516                       # miss rate for demand accesses
system.cpu0.dcache.overall_miss_rate::switch_cpus0.data     0.017082                       # miss rate for overall accesses
system.cpu0.dcache.overall_miss_rate::switch_cpus_10.data     0.026963                       # miss rate for overall accesses
system.cpu0.dcache.overall_miss_rate::total     0.026882                       # miss rate for overall accesses
system.cpu0.dcache.ReadReq_avg_miss_latency::switch_cpus_10.data  9327.532614                       # average ReadReq miss latency
system.cpu0.dcache.ReadReq_avg_miss_latency::total  9285.550190                       # average ReadReq miss latency
system.cpu0.dcache.WriteReq_avg_miss_latency::switch_cpus_10.data 12143.061072                       # average WriteReq miss latency
system.cpu0.dcache.WriteReq_avg_miss_latency::total 12054.775108                       # average WriteReq miss latency
system.cpu0.dcache.demand_avg_miss_latency::switch_cpus_10.data 10101.949537                       # average overall miss latency
system.cpu0.dcache.demand_avg_miss_latency::total 10048.770547                       # average overall miss latency
system.cpu0.dcache.overall_avg_miss_latency::switch_cpus_10.data  9958.801750                       # average overall miss latency
system.cpu0.dcache.overall_avg_miss_latency::total  9907.115352                       # average overall miss latency
system.cpu0.dcache.blocked_cycles::no_mshrs            0                       # number of cycles access was blocked
system.cpu0.dcache.blocked_cycles::no_targets            0                       # number of cycles access was blocked
system.cpu0.dcache.blocked::no_mshrs                0                       # number of cycles access was blocked
system.cpu0.dcache.blocked::no_targets              0                       # number of cycles access was blocked
system.cpu0.dcache.avg_blocked_cycles::no_mshrs          nan                       # average number of cycles each access was blocked
system.cpu0.dcache.avg_blocked_cycles::no_targets          nan                       # average number of cycles each access was blocked
system.cpu0.dcache.writebacks::writebacks         8326                       # number of writebacks
system.cpu0.dcache.writebacks::total             8326                       # number of writebacks
system.cpu0.dcache.WriteReq_mshr_hits::switch_cpus_10.data            4                       # number of WriteReq MSHR hits
system.cpu0.dcache.WriteReq_mshr_hits::total            4                       # number of WriteReq MSHR hits
system.cpu0.dcache.demand_mshr_hits::switch_cpus_10.data            4                       # number of demand (read+write) MSHR hits
system.cpu0.dcache.demand_mshr_hits::total            4                       # number of demand (read+write) MSHR hits
system.cpu0.dcache.overall_mshr_hits::switch_cpus_10.data            4                       # number of overall MSHR hits
system.cpu0.dcache.overall_mshr_hits::total            4                       # number of overall MSHR hits
system.cpu0.dcache.ReadReq_mshr_misses::switch_cpus_10.data        21233                       # number of ReadReq MSHR misses
system.cpu0.dcache.ReadReq_mshr_misses::total        21233                       # number of ReadReq MSHR misses
system.cpu0.dcache.WriteReq_mshr_misses::switch_cpus_10.data         8052                       # number of WriteReq MSHR misses
system.cpu0.dcache.WriteReq_mshr_misses::total         8052                       # number of WriteReq MSHR misses
system.cpu0.dcache.SoftPFReq_mshr_misses::switch_cpus_10.data          421                       # number of SoftPFReq MSHR misses
system.cpu0.dcache.SoftPFReq_mshr_misses::total          421                       # number of SoftPFReq MSHR misses
system.cpu0.dcache.demand_mshr_misses::switch_cpus_10.data        29285                       # number of demand (read+write) MSHR misses
system.cpu0.dcache.demand_mshr_misses::total        29285                       # number of demand (read+write) MSHR misses
system.cpu0.dcache.overall_mshr_misses::switch_cpus_10.data        29706                       # number of overall MSHR misses
system.cpu0.dcache.overall_mshr_misses::total        29706                       # number of overall MSHR misses
system.cpu0.dcache.ReadReq_mshr_uncacheable::switch_cpus_10.data           23                       # number of ReadReq MSHR uncacheable
system.cpu0.dcache.ReadReq_mshr_uncacheable::total           23                       # number of ReadReq MSHR uncacheable
system.cpu0.dcache.WriteReq_mshr_uncacheable::switch_cpus_10.data          471                       # number of WriteReq MSHR uncacheable
system.cpu0.dcache.WriteReq_mshr_uncacheable::total          471                       # number of WriteReq MSHR uncacheable
system.cpu0.dcache.overall_mshr_uncacheable_misses::switch_cpus_10.data          494                       # number of overall MSHR uncacheable misses
system.cpu0.dcache.overall_mshr_uncacheable_misses::total          494                       # number of overall MSHR uncacheable misses
system.cpu0.dcache.ReadReq_mshr_miss_latency::switch_cpus_10.data    176818500                       # number of ReadReq MSHR miss cycles
system.cpu0.dcache.ReadReq_mshr_miss_latency::total    176818500                       # number of ReadReq MSHR miss cycles
system.cpu0.dcache.WriteReq_mshr_miss_latency::switch_cpus_10.data     89486500                       # number of WriteReq MSHR miss cycles
system.cpu0.dcache.WriteReq_mshr_miss_latency::total     89486500                       # number of WriteReq MSHR miss cycles
system.cpu0.dcache.SoftPFReq_mshr_miss_latency::switch_cpus_10.data      3101000                       # number of SoftPFReq MSHR miss cycles
system.cpu0.dcache.SoftPFReq_mshr_miss_latency::total      3101000                       # number of SoftPFReq MSHR miss cycles
system.cpu0.dcache.demand_mshr_miss_latency::switch_cpus_10.data    266305000                       # number of demand (read+write) MSHR miss cycles
system.cpu0.dcache.demand_mshr_miss_latency::total    266305000                       # number of demand (read+write) MSHR miss cycles
system.cpu0.dcache.overall_mshr_miss_latency::switch_cpus_10.data    269406000                       # number of overall MSHR miss cycles
system.cpu0.dcache.overall_mshr_miss_latency::total    269406000                       # number of overall MSHR miss cycles
system.cpu0.dcache.ReadReq_mshr_uncacheable_latency::switch_cpus_10.data      3789500                       # number of ReadReq MSHR uncacheable cycles
system.cpu0.dcache.ReadReq_mshr_uncacheable_latency::total      3789500                       # number of ReadReq MSHR uncacheable cycles
system.cpu0.dcache.overall_mshr_uncacheable_latency::switch_cpus_10.data      3789500                       # number of overall MSHR uncacheable cycles
system.cpu0.dcache.overall_mshr_uncacheable_latency::total      3789500                       # number of overall MSHR uncacheable cycles
system.cpu0.dcache.ReadReq_mshr_miss_rate::switch_cpus_10.data     0.031063                       # mshr miss rate for ReadReq accesses
system.cpu0.dcache.ReadReq_mshr_miss_rate::total     0.030800                       # mshr miss rate for ReadReq accesses
system.cpu0.dcache.WriteReq_mshr_miss_rate::switch_cpus_10.data     0.019273                       # mshr miss rate for WriteReq accesses
system.cpu0.dcache.WriteReq_mshr_miss_rate::total     0.019125                       # mshr miss rate for WriteReq accesses
system.cpu0.dcache.SoftPFReq_mshr_miss_rate::switch_cpus_10.data     0.782528                       # mshr miss rate for SoftPFReq accesses
system.cpu0.dcache.SoftPFReq_mshr_miss_rate::total     0.773897                       # mshr miss rate for SoftPFReq accesses
system.cpu0.dcache.demand_mshr_miss_rate::switch_cpus_10.data     0.026590                       # mshr miss rate for demand accesses
system.cpu0.dcache.demand_mshr_miss_rate::total     0.026373                       # mshr miss rate for demand accesses
system.cpu0.dcache.overall_mshr_miss_rate::switch_cpus_10.data     0.026959                       # mshr miss rate for overall accesses
system.cpu0.dcache.overall_mshr_miss_rate::total     0.026739                       # mshr miss rate for overall accesses
system.cpu0.dcache.ReadReq_avg_mshr_miss_latency::switch_cpus_10.data  8327.532614                       # average ReadReq mshr miss latency
system.cpu0.dcache.ReadReq_avg_mshr_miss_latency::total  8327.532614                       # average ReadReq mshr miss latency
system.cpu0.dcache.WriteReq_avg_mshr_miss_latency::switch_cpus_10.data 11113.574267                       # average WriteReq mshr miss latency
system.cpu0.dcache.WriteReq_avg_mshr_miss_latency::total 11113.574267                       # average WriteReq mshr miss latency
system.cpu0.dcache.SoftPFReq_avg_mshr_miss_latency::switch_cpus_10.data  7365.795724                       # average SoftPFReq mshr miss latency
system.cpu0.dcache.SoftPFReq_avg_mshr_miss_latency::total  7365.795724                       # average SoftPFReq mshr miss latency
system.cpu0.dcache.demand_avg_mshr_miss_latency::switch_cpus_10.data  9093.563258                       # average overall mshr miss latency
system.cpu0.dcache.demand_avg_mshr_miss_latency::total  9093.563258                       # average overall mshr miss latency
system.cpu0.dcache.overall_avg_mshr_miss_latency::switch_cpus_10.data  9069.076954                       # average overall mshr miss latency
system.cpu0.dcache.overall_avg_mshr_miss_latency::total  9069.076954                       # average overall mshr miss latency
system.cpu0.dcache.ReadReq_avg_mshr_uncacheable_latency::switch_cpus_10.data 164760.869565                       # average ReadReq mshr uncacheable latency
system.cpu0.dcache.ReadReq_avg_mshr_uncacheable_latency::total 164760.869565                       # average ReadReq mshr uncacheable latency
system.cpu0.dcache.overall_avg_mshr_uncacheable_latency::switch_cpus_10.data  7671.052632                       # average overall mshr uncacheable latency
system.cpu0.dcache.overall_avg_mshr_uncacheable_latency::total  7671.052632                       # average overall mshr uncacheable latency
[...]
system.tol2bus.pkt_count_system.cpu4.icache.mem_side::system.l2.cpu_side        38433                       # Packet count per connected master and slave (bytes)
system.tol2bus.pkt_count_system.cpu4.dcache.mem_side::system.l2.cpu_side        52834                       # Packet count per connected master and slave (bytes)
system.tol2bus.pkt_count_system.cpu4.itb_walker_cache.mem_side::system.l2.cpu_side           39                       # Packet count per connected master and slave (bytes)
system.tol2bus.pkt_count_system.cpu4.dtb_walker_cache.mem_side::system.l2.cpu_side          252                       # Packet count per connected master and slave (bytes)
system.tol2bus.pkt_count_system.cpu5.icache.mem_side::system.l2.cpu_side        36444                       # Packet count per connected master and slave (bytes)
system.tol2bus.pkt_count_system.cpu5.dcache.mem_side::system.l2.cpu_side        48644                       # Packet count per connected master and slave (bytes)
system.tol2bus.pkt_count_system.cpu5.itb_walker_cache.mem_side::system.l2.cpu_side          110                       # Packet count per connected master and slave (bytes)
system.tol2bus.pkt_count_system.cpu5.dtb_walker_cache.mem_side::system.l2.cpu_side          289                       # Packet count per connected master and slave (bytes)
system.tol2bus.pkt_count_system.cpu6.icache.mem_side::system.l2.cpu_side        21624                       # Packet count per connected master and slave (bytes)
system.tol2bus.pkt_count_system.cpu6.dcache.mem_side::system.l2.cpu_side        13062                       # Packet count per connected master and slave (bytes)
system.tol2bus.pkt_count_system.cpu6.itb_walker_cache.mem_side::system.l2.cpu_side           85                       # Packet count per connected master and slave (bytes)
system.tol2bus.pkt_count_system.cpu6.dtb_walker_cache.mem_side::system.l2.cpu_side          238                       # Packet count per connected master and slave (bytes)
system.tol2bus.pkt_count_system.cpu7.icache.mem_side::system.l2.cpu_side        34059                       # Packet count per connected master and slave (bytes)
system.tol2bus.pkt_count_system.cpu7.dcache.mem_side::system.l2.cpu_side        49146                       # Packet count per connected master and slave (bytes)
system.tol2bus.pkt_count_system.cpu7.itb_walker_cache.mem_side::system.l2.cpu_side           30                       # Packet count per connected master and slave (bytes)
system.tol2bus.pkt_count_system.cpu7.dtb_walker_cache.mem_side::system.l2.cpu_side          224                       # Packet count per connected master and slave (bytes)
system.tol2bus.pkt_count::total                693101                       # Packet count per connected master and slave (bytes)
system.tol2bus.pkt_size_system.cpu0.icache.mem_side::system.l2.cpu_side      2546432                       # Cumulative packet size per connected master and slave (bytes)
system.tol2bus.pkt_size_system.cpu0.dcache.mem_side::system.l2.cpu_side      1293572                       # Cumulative packet size per connected master and slave (bytes)
system.tol2bus.pkt_size_system.cpu0.itb_walker_cache.mem_side::system.l2.cpu_side        10560                       # Cumulative packet size per connected master and slave (bytes)
system.tol2bus.pkt_size_system.cpu0.dtb_walker_cache.mem_side::system.l2.cpu_side        12864                       # Cumulative packet size per connected master and slave (bytes)
system.tol2bus.pkt_size_system.cpu1.icache.mem_side::system.l2.cpu_side      1594624                       # Cumulative packet size per connected master and slave (bytes)
system.tol2bus.pkt_size_system.cpu1.dcache.mem_side::system.l2.cpu_side      1011364                       # Cumulative packet size per connected master and slave (bytes)
system.tol2bus.pkt_size_system.cpu1.itb_walker_cache.mem_side::system.l2.cpu_side         7936                       # Cumulative packet size per connected master and slave (bytes)
system.tol2bus.pkt_size_system.cpu1.dtb_walker_cache.mem_side::system.l2.cpu_side        12736                       # Cumulative packet size per connected master and slave (bytes)
system.tol2bus.pkt_size_system.cpu2.icache.mem_side::system.l2.cpu_side      1564160                       # Cumulative packet size per connected master and slave (bytes)
system.tol2bus.pkt_size_system.cpu2.dcache.mem_side::system.l2.cpu_side       908888                       # Cumulative packet size per connected master and slave (bytes)
system.tol2bus.pkt_size_system.cpu2.itb_walker_cache.mem_side::system.l2.cpu_side         3264                       # Cumulative packet size per connected master and slave (bytes)
system.tol2bus.pkt_size_system.cpu2.dtb_walker_cache.mem_side::system.l2.cpu_side         6528                       # Cumulative packet size per connected master and slave (bytes)
system.tol2bus.pkt_size_system.cpu3.icache.mem_side::system.l2.cpu_side      1525632                       # Cumulative packet size per connected master and slave (bytes)
system.tol2bus.pkt_size_system.cpu3.dcache.mem_side::system.l2.cpu_side       944844                       # Cumulative packet size per connected master and slave (bytes)
system.tol2bus.pkt_size_system.cpu3.itb_walker_cache.mem_side::system.l2.cpu_side          768                       # Cumulative packet size per connected master and slave (bytes)
system.tol2bus.pkt_size_system.cpu3.dtb_walker_cache.mem_side::system.l2.cpu_side         5696                       # Cumulative packet size per connected master and slave (bytes)
system.tol2bus.pkt_size_system.cpu4.icache.mem_side::system.l2.cpu_side      1639808                       # Cumulative packet size per connected master and slave (bytes)
system.tol2bus.pkt_size_system.cpu4.dcache.mem_side::system.l2.cpu_side       892206                       # Cumulative packet size per connected master and slave (bytes)
system.tol2bus.pkt_size_system.cpu4.itb_walker_cache.mem_side::system.l2.cpu_side          704                       # Cumulative packet size per connected master and slave (bytes)
system.tol2bus.pkt_size_system.cpu4.dtb_walker_cache.mem_side::system.l2.cpu_side         5056                       # Cumulative packet size per connected master and slave (bytes)
system.tol2bus.pkt_size_system.cpu5.icache.mem_side::system.l2.cpu_side      1554944                       # Cumulative packet size per connected master and slave (bytes)
system.tol2bus.pkt_size_system.cpu5.dcache.mem_side::system.l2.cpu_side       848630                       # Cumulative packet size per connected master and slave (bytes)
system.tol2bus.pkt_size_system.cpu5.itb_walker_cache.mem_side::system.l2.cpu_side         1536                       # Cumulative packet size per connected master and slave (bytes)
system.tol2bus.pkt_size_system.cpu5.dtb_walker_cache.mem_side::system.l2.cpu_side         5056                       # Cumulative packet size per connected master and slave (bytes)
system.tol2bus.pkt_size_system.cpu6.icache.mem_side::system.l2.cpu_side       922624                       # Cumulative packet size per connected master and slave (bytes)
system.tol2bus.pkt_size_system.cpu6.dcache.mem_side::system.l2.cpu_side       188966                       # Cumulative packet size per connected master and slave (bytes)
system.tol2bus.pkt_size_system.cpu6.itb_walker_cache.mem_side::system.l2.cpu_side          832                       # Cumulative packet size per connected master and slave (bytes)
system.tol2bus.pkt_size_system.cpu6.dtb_walker_cache.mem_side::system.l2.cpu_side         4608                       # Cumulative packet size per connected master and slave (bytes)
system.tol2bus.pkt_size_system.cpu7.icache.mem_side::system.l2.cpu_side      1453184                       # Cumulative packet size per connected master and slave (bytes)
system.tol2bus.pkt_size_system.cpu7.dcache.mem_side::system.l2.cpu_side       841336                       # Cumulative packet size per connected master and slave (bytes)
system.tol2bus.pkt_size_system.cpu7.itb_walker_cache.mem_side::system.l2.cpu_side          128                       # Cumulative packet size per connected master and slave (bytes)
system.tol2bus.pkt_size_system.cpu7.dtb_walker_cache.mem_side::system.l2.cpu_side         4544                       # Cumulative packet size per connected master and slave (bytes)
system.tol2bus.pkt_size::total               19814030                       # Cumulative packet size per connected master and slave (bytes)
system.tol2bus.snoops                          194828                       # Total snoops (count)
system.tol2bus.snoopTraffic                   7008832                       # Total snoop traffic (bytes)
system.tol2bus.snoop_fanout::samples           377821                       # Request fanout histogram
system.tol2bus.snoop_fanout::mean            2.396026                       # Request fanout histogram
system.tol2bus.snoop_fanout::stdev           2.706598                       # Request fanout histogram
system.tol2bus.snoop_fanout::underflows             0      0.00%      0.00% # Request fanout histogram
system.tol2bus.snoop_fanout::0                 105800     28.00%     28.00% # Request fanout histogram
system.tol2bus.snoop_fanout::1                 123710     32.74%     60.75% # Request fanout histogram
system.tol2bus.snoop_fanout::2                  35101      9.29%     70.04% # Request fanout histogram
system.tol2bus.snoop_fanout::3                   8114      2.15%     72.18% # Request fanout histogram
system.tol2bus.snoop_fanout::4                   6149      1.63%     73.81% # Request fanout histogram
system.tol2bus.snoop_fanout::5                   4516      1.20%     75.01% # Request fanout histogram
system.tol2bus.snoop_fanout::6                  26302      6.96%     81.97% # Request fanout histogram
system.tol2bus.snoop_fanout::7                  65874     17.44%     99.40% # Request fanout histogram
system.tol2bus.snoop_fanout::8                   1768      0.47%     99.87% # Request fanout histogram
system.tol2bus.snoop_fanout::9                     36      0.01%     99.88% # Request fanout histogram
system.tol2bus.snoop_fanout::10                    45      0.01%     99.89% # Request fanout histogram
system.tol2bus.snoop_fanout::11                    64      0.02%     99.91% # Request fanout histogram
system.tol2bus.snoop_fanout::12                    82      0.02%     99.93% # Request fanout histogram
system.tol2bus.snoop_fanout::13                    75      0.02%     99.95% # Request fanout histogram
system.tol2bus.snoop_fanout::14                    38      0.01%     99.96% # Request fanout histogram
system.tol2bus.snoop_fanout::15                     2      0.00%     99.96% # Request fanout histogram
system.tol2bus.snoop_fanout::16                    14      0.00%     99.97% # Request fanout histogram
system.tol2bus.snoop_fanout::17                     6      0.00%     99.97% # Request fanout histogram
system.tol2bus.snoop_fanout::18                    12      0.00%     99.97% # Request fanout histogram
system.tol2bus.snoop_fanout::19                    44      0.01%     99.98% # Request fanout histogram
system.tol2bus.snoop_fanout::20                    61      0.02%    100.00% # Request fanout histogram
system.tol2bus.snoop_fanout::21                     8      0.00%    100.00% # Request fanout histogram
system.tol2bus.snoop_fanout::22                     0      0.00%    100.00% # Request fanout histogram
system.tol2bus.snoop_fanout::23                     0      0.00%    100.00% # Request fanout histogram
system.tol2bus.snoop_fanout::24                     0      0.00%    100.00% # Request fanout histogram
system.tol2bus.snoop_fanout::25                     0      0.00%    100.00% # Request fanout histogram
system.tol2bus.snoop_fanout::26                     0      0.00%    100.00% # Request fanout histogram
system.tol2bus.snoop_fanout::27                     0      0.00%    100.00% # Request fanout histogram
system.tol2bus.snoop_fanout::28                     0      0.00%    100.00% # Request fanout histogram
system.tol2bus.snoop_fanout::29                     0      0.00%    100.00% # Request fanout histogram
system.tol2bus.snoop_fanout::30                     0      0.00%    100.00% # Request fanout histogram
system.tol2bus.snoop_fanout::31                     0      0.00%    100.00% # Request fanout histogram
system.tol2bus.snoop_fanout::32                     0      0.00%    100.00% # Request fanout histogram
system.tol2bus.snoop_fanout::overflows              0      0.00%    100.00% # Request fanout histogram
system.tol2bus.snoop_fanout::min_value              0                       # Request fanout histogram
system.tol2bus.snoop_fanout::max_value             21                       # Request fanout histogram
system.tol2bus.snoop_fanout::total             377821                       # Request fanout histogram
system.tol2bus.reqLayer0.occupancy          397552998                       # Layer occupancy (ticks)
system.tol2bus.reqLayer0.utilization              0.0                       # Layer utilization (%)
system.tol2bus.snoopLayer0.occupancy           272471                       # Layer occupancy (ticks)
system.tol2bus.snoopLayer0.utilization            0.0                       # Layer utilization (%)
system.tol2bus.respLayer0.occupancy          29541499                       # Layer occupancy (ticks)
system.tol2bus.respLayer0.utilization             0.0                       # Layer utilization (%)
system.tol2bus.respLayer1.occupancy          39584996                       # Layer occupancy (ticks)
system.tol2bus.respLayer1.utilization             0.0                       # Layer utilization (%)
system.tol2bus.respLayer2.occupancy            261000                       # Layer occupancy (ticks)
system.tol2bus.respLayer2.utilization             0.0                       # Layer utilization (%)
system.tol2bus.respLayer3.occupancy            336000                       # Layer occupancy (ticks)
system.tol2bus.respLayer3.utilization             0.0                       # Layer utilization (%)
system.tol2bus.respLayer4.occupancy          18688996                       # Layer occupancy (ticks)
system.tol2bus.respLayer4.utilization             0.0                       # Layer utilization (%)
system.tol2bus.respLayer5.occupancy          35185499                       # Layer occupancy (ticks)
system.tol2bus.respLayer5.utilization             0.0                       # Layer utilization (%)
system.tol2bus.respLayer6.occupancy            349500                       # Layer occupancy (ticks)
system.tol2bus.respLayer6.utilization             0.0                       # Layer utilization (%)
system.tol2bus.respLayer7.occupancy            381000                       # Layer occupancy (ticks)
system.tol2bus.respLayer7.utilization             0.0                       # Layer utilization (%)
system.tol2bus.respLayer8.occupancy          18330000                       # Layer occupancy (ticks)
system.tol2bus.respLayer8.utilization             0.0                       # Layer utilization (%)
system.tol2bus.respLayer9.occupancy          37011499                       # Layer occupancy (ticks)
system.tol2bus.respLayer9.utilization             0.0                       # Layer utilization (%)
system.tol2bus.respLayer10.occupancy           148500                       # Layer occupancy (ticks)
system.tol2bus.respLayer10.utilization            0.0                       # Layer utilization (%)
system.tol2bus.respLayer11.occupancy           204000                       # Layer occupancy (ticks)
system.tol2bus.respLayer11.utilization            0.0                       # Layer utilization (%)
system.tol2bus.respLayer12.occupancy         17878999                       # Layer occupancy (ticks)
system.tol2bus.respLayer12.utilization            0.0                       # Layer utilization (%)
system.tol2bus.respLayer13.occupancy         37941500                       # Layer occupancy (ticks)
system.tol2bus.respLayer13.utilization            0.0                       # Layer utilization (%)
system.tol2bus.respLayer14.occupancy            43500                       # Layer occupancy (ticks)
system.tol2bus.respLayer14.utilization            0.0                       # Layer utilization (%)
system.tol2bus.respLayer15.occupancy           178500                       # Layer occupancy (ticks)
system.tol2bus.respLayer15.utilization            0.0                       # Layer utilization (%)
system.tol2bus.respLayer16.occupancy         19216500                       # Layer occupancy (ticks)
system.tol2bus.respLayer16.utilization            0.0                       # Layer utilization (%)
system.tol2bus.respLayer17.occupancy         37025000                       # Layer occupancy (ticks)
system.tol2bus.respLayer17.utilization            0.0                       # Layer utilization (%)
system.tol2bus.respLayer18.occupancy            27000                       # Layer occupancy (ticks)
system.tol2bus.respLayer18.utilization            0.0                       # Layer utilization (%)
system.tol2bus.respLayer19.occupancy           147000                       # Layer occupancy (ticks)
system.tol2bus.respLayer19.utilization            0.0                       # Layer utilization (%)
system.tol2bus.respLayer20.occupancy         18222000                       # Layer occupancy (ticks)
system.tol2bus.respLayer20.utilization            0.0                       # Layer utilization (%)
system.tol2bus.respLayer21.occupancy         33687499                       # Layer occupancy (ticks)
system.tol2bus.respLayer21.utilization            0.0                       # Layer utilization (%)
system.tol2bus.respLayer22.occupancy            75000                       # Layer occupancy (ticks)
system.tol2bus.respLayer22.utilization            0.0                       # Layer utilization (%)
system.tol2bus.respLayer23.occupancy           172500                       # Layer occupancy (ticks)
system.tol2bus.respLayer23.utilization            0.0                       # Layer utilization (%)
system.tol2bus.respLayer24.occupancy         10813497                       # Layer occupancy (ticks)
system.tol2bus.respLayer24.utilization            0.0                       # Layer utilization (%)
system.tol2bus.respLayer25.occupancy         10350497                       # Layer occupancy (ticks)
system.tol2bus.respLayer25.utilization            0.0                       # Layer utilization (%)
system.tol2bus.respLayer26.occupancy            57000                       # Layer occupancy (ticks)
system.tol2bus.respLayer26.utilization            0.0                       # Layer utilization (%)
system.tol2bus.respLayer27.occupancy           135000                       # Layer occupancy (ticks)
system.tol2bus.respLayer27.utilization            0.0                       # Layer utilization (%)
system.tol2bus.respLayer28.occupancy         17029500                       # Layer occupancy (ticks)
system.tol2bus.respLayer28.utilization            0.0                       # Layer utilization (%)
system.tol2bus.respLayer29.occupancy         34416000                       # Layer occupancy (ticks)
system.tol2bus.respLayer29.utilization            0.0                       # Layer utilization (%)
system.tol2bus.respLayer30.occupancy            27000                       # Layer occupancy (ticks)
system.tol2bus.respLayer30.utilization            0.0                       # Layer utilization (%)
system.tol2bus.respLayer31.occupancy           129000                       # Layer occupancy (ticks)
system.tol2bus.respLayer31.utilization            0.0                       # Layer utilization (%)

---------- End Simulation Statistics   ----------
