
---------- Begin Simulation Statistics ----------
sim_seconds                                  0.100975                       # Number of seconds simulated
sim_ticks                                100974747500                       # Number of ticks simulated
final_tick                               100974747500                       # Number of ticks from beginning of simulation (restored from checkpoints and never reset)
sim_freq                                 1000000000000                       # Frequency of simulated ticks
host_inst_rate                                  70639                       # Simulator instruction rate (inst/s)
host_op_rate                                    73499                       # Simulator op (including micro ops) rate (op/s)
host_tick_rate                               17710002                       # Simulator tick rate (ticks/s)
host_mem_usage                                 666348                       # Number of bytes of host memory used
host_seconds                                  5701.57                       # Real time elapsed on the host
sim_insts                                   402752520                       # Number of instructions simulated
sim_ops                                     419059513                       # Number of ops (including micro ops) simulated
system.voltage_domain.voltage                       1                       # Voltage in Volts
system.clk_domain.clock                          1000                       # Clock period in ticks
system.mem_ctrls.pwrStateResidencyTicks::UNDEFINED 100974747500                       # Cumulative time (in ticks) in various power states
system.mem_ctrls.bytes_read::cpu.inst           70912                       # Number of bytes read from this memory
system.mem_ctrls.bytes_read::cpu.data           33472                       # Number of bytes read from this memory
system.mem_ctrls.bytes_read::l2.prefetcher        97088                       # Number of bytes read from this memory
system.mem_ctrls.bytes_read::total             201472                       # Number of bytes read from this memory
system.mem_ctrls.bytes_inst_read::cpu.inst        70912                       # Number of instructions bytes read from this memory
system.mem_ctrls.bytes_inst_read::total         70912                       # Number of instructions bytes read from this memory
system.mem_ctrls.num_reads::cpu.inst             1108                       # Number of read requests responded to by this memory
system.mem_ctrls.num_reads::cpu.data              523                       # Number of read requests responded to by this memory
system.mem_ctrls.num_reads::l2.prefetcher         1517                       # Number of read requests responded to by this memory
system.mem_ctrls.num_reads::total                3148                       # Number of read requests responded to by this memory
system.mem_ctrls.bw_read::cpu.inst             702275                       # Total read bandwidth from this memory (bytes/s)
system.mem_ctrls.bw_read::cpu.data             331489                       # Total read bandwidth from this memory (bytes/s)
system.mem_ctrls.bw_read::l2.prefetcher        961508                       # Total read bandwidth from this memory (bytes/s)
system.mem_ctrls.bw_read::total               1995271                       # Total read bandwidth from this memory (bytes/s)
system.mem_ctrls.bw_inst_read::cpu.inst        702275                       # Instruction read bandwidth from this memory (bytes/s)
system.mem_ctrls.bw_inst_read::total           702275                       # Instruction read bandwidth from this memory (bytes/s)
system.mem_ctrls.bw_total::cpu.inst            702275                       # Total bandwidth to/from this memory (bytes/s)
system.mem_ctrls.bw_total::cpu.data            331489                       # Total bandwidth to/from this memory (bytes/s)
system.mem_ctrls.bw_total::l2.prefetcher       961508                       # Total bandwidth to/from this memory (bytes/s)
system.mem_ctrls.bw_total::total              1995271                       # Total bandwidth to/from this memory (bytes/s)
system.mem_ctrls.readReqs                        3148                       # Number of read requests accepted
system.mem_ctrls.writeReqs                          0                       # Number of write requests accepted
system.mem_ctrls.readBursts                      3148                       # Number of DRAM read bursts, including those serviced by the write queue
system.mem_ctrls.writeBursts                        0                       # Number of DRAM write bursts, including those merged in the write queue
system.mem_ctrls.bytesReadDRAM                 201472                       # Total number of bytes read from DRAM
system.mem_ctrls.bytesReadWrQ                       0                       # Total number of bytes read from write queue
system.mem_ctrls.bytesWritten                       0                       # Total number of bytes written to DRAM
system.mem_ctrls.bytesReadSys                  201472                       # Total read bytes from the system interface side
system.mem_ctrls.bytesWrittenSys                    0                       # Total written bytes from the system interface side
system.mem_ctrls.servicedByWrQ                      0                       # Number of DRAM read bursts serviced by the write queue
system.mem_ctrls.mergedWrBursts                     0                       # Number of DRAM write bursts merged with an existing one
system.mem_ctrls.neitherReadNorWriteReqs            0                       # Number of requests that are neither read nor write
system.mem_ctrls.perBankRdBursts::0               120                       # Per bank write bursts
system.mem_ctrls.perBankRdBursts::1               159                       # Per bank write bursts
system.mem_ctrls.perBankRdBursts::2               226                       # Per bank write bursts
system.mem_ctrls.perBankRdBursts::3               202                       # Per bank write bursts
system.mem_ctrls.perBankRdBursts::4               257                       # Per bank write bursts
system.mem_ctrls.perBankRdBursts::5               282                       # Per bank write bursts
system.mem_ctrls.perBankRdBursts::6               206                       # Per bank write bursts
system.mem_ctrls.perBankRdBursts::7               206                       # Per bank write bursts
system.mem_ctrls.perBankRdBursts::8               234                       # Per bank write bursts
system.mem_ctrls.perBankRdBursts::9               140                       # Per bank write bursts
system.mem_ctrls.perBankRdBursts::10              244                       # Per bank write bursts
system.mem_ctrls.perBankRdBursts::11              151                       # Per bank write bursts
system.mem_ctrls.perBankRdBursts::12              207                       # Per bank write bursts
system.mem_ctrls.perBankRdBursts::13              407                       # Per bank write bursts
system.mem_ctrls.perBankRdBursts::14               73                       # Per bank write bursts
system.mem_ctrls.perBankRdBursts::15               34                       # Per bank write bursts
system.mem_ctrls.perBankWrBursts::0                 0                       # Per bank write bursts
system.mem_ctrls.perBankWrBursts::1                 0                       # Per bank write bursts
system.mem_ctrls.perBankWrBursts::2                 0                       # Per bank write bursts
system.mem_ctrls.perBankWrBursts::3                 0                       # Per bank write bursts
system.mem_ctrls.perBankWrBursts::4                 0                       # Per bank write bursts
system.mem_ctrls.perBankWrBursts::5                 0                       # Per bank write bursts
system.mem_ctrls.perBankWrBursts::6                 0                       # Per bank write bursts
system.mem_ctrls.perBankWrBursts::7                 0                       # Per bank write bursts
system.mem_ctrls.perBankWrBursts::8                 0                       # Per bank write bursts
system.mem_ctrls.perBankWrBursts::9                 0                       # Per bank write bursts
system.mem_ctrls.perBankWrBursts::10                0                       # Per bank write bursts
system.mem_ctrls.perBankWrBursts::11                0                       # Per bank write bursts
system.mem_ctrls.perBankWrBursts::12                0                       # Per bank write bursts
system.mem_ctrls.perBankWrBursts::13                0                       # Per bank write bursts
system.mem_ctrls.perBankWrBursts::14                0                       # Per bank write bursts
system.mem_ctrls.perBankWrBursts::15                0                       # Per bank write bursts
system.mem_ctrls.numRdRetry                         0                       # Number of times read queue was full causing retry
system.mem_ctrls.numWrRetry                         0                       # Number of times write queue was full causing retry
system.mem_ctrls.totGap                  100974675500                       # Total gap between requests
system.mem_ctrls.readPktSize::0                     0                       # Read request sizes (log2)
system.mem_ctrls.readPktSize::1                     0                       # Read request sizes (log2)
system.mem_ctrls.readPktSize::2                     0                       # Read request sizes (log2)
system.mem_ctrls.readPktSize::3                     0                       # Read request sizes (log2)
system.mem_ctrls.readPktSize::4                     0                       # Read request sizes (log2)
system.mem_ctrls.readPktSize::5                     0                       # Read request sizes (log2)
system.mem_ctrls.readPktSize::6                  3148                       # Read request sizes (log2)
system.mem_ctrls.writePktSize::0                    0                       # Write request sizes (log2)
system.mem_ctrls.writePktSize::1                    0                       # Write request sizes (log2)
system.mem_ctrls.writePktSize::2                    0                       # Write request sizes (log2)
system.mem_ctrls.writePktSize::3                    0                       # Write request sizes (log2)
system.mem_ctrls.writePktSize::4                    0                       # Write request sizes (log2)
system.mem_ctrls.writePktSize::5                    0                       # Write request sizes (log2)
system.mem_ctrls.writePktSize::6                    0                       # Write request sizes (log2)
system.mem_ctrls.rdQLenPdf::0                    1267                       # What read queue length does an incoming req see
system.mem_ctrls.rdQLenPdf::1                    1223                       # What read queue length does an incoming req see
system.mem_ctrls.rdQLenPdf::2                     302                       # What read queue length does an incoming req see
system.mem_ctrls.rdQLenPdf::3                     138                       # What read queue length does an incoming req see
system.mem_ctrls.rdQLenPdf::4                      77                       # What read queue length does an incoming req see
system.mem_ctrls.rdQLenPdf::5                      45                       # What read queue length does an incoming req see
system.mem_ctrls.rdQLenPdf::6                      31                       # What read queue length does an incoming req see
system.mem_ctrls.rdQLenPdf::7                      31                       # What read queue length does an incoming req see
system.mem_ctrls.rdQLenPdf::8                      26                       # What read queue length does an incoming req see
system.mem_ctrls.rdQLenPdf::9                       3                       # What read queue length does an incoming req see
system.mem_ctrls.rdQLenPdf::10                      3                       # What read queue length does an incoming req see
system.mem_ctrls.rdQLenPdf::11                      2                       # What read queue length does an incoming req see
system.mem_ctrls.rdQLenPdf::12                      0                       # What read queue length does an incoming req see
system.mem_ctrls.rdQLenPdf::13                      0                       # What read queue length does an incoming req see
system.mem_ctrls.rdQLenPdf::14                      0                       # What read queue length does an incoming req see
system.mem_ctrls.rdQLenPdf::15                      0                       # What read queue length does an incoming req see
system.mem_ctrls.rdQLenPdf::16                      0                       # What read queue length does an incoming req see
system.mem_ctrls.rdQLenPdf::17                      0                       # What read queue length does an incoming req see
system.mem_ctrls.rdQLenPdf::18                      0                       # What read queue length does an incoming req see
system.mem_ctrls.rdQLenPdf::19                      0                       # What read queue length does an incoming req see
system.mem_ctrls.rdQLenPdf::20                      0                       # What read queue length does an incoming req see
system.mem_ctrls.rdQLenPdf::21                      0                       # What read queue length does an incoming req see
system.mem_ctrls.rdQLenPdf::22                      0                       # What read queue length does an incoming req see
system.mem_ctrls.rdQLenPdf::23                      0                       # What read queue length does an incoming req see
system.mem_ctrls.rdQLenPdf::24                      0                       # What read queue length does an incoming req see
system.mem_ctrls.rdQLenPdf::25                      0                       # What read queue length does an incoming req see
system.mem_ctrls.rdQLenPdf::26                      0                       # What read queue length does an incoming req see
system.mem_ctrls.rdQLenPdf::27                      0                       # What read queue length does an incoming req see
system.mem_ctrls.rdQLenPdf::28                      0                       # What read queue length does an incoming req see
system.mem_ctrls.rdQLenPdf::29                      0                       # What read queue length does an incoming req see
system.mem_ctrls.rdQLenPdf::30                      0                       # What read queue length does an incoming req see
system.mem_ctrls.rdQLenPdf::31                      0                       # What read queue length does an incoming req see
system.mem_ctrls.wrQLenPdf::0                       0                       # What write queue length does an incoming req see
system.mem_ctrls.wrQLenPdf::1                       0                       # What write queue length does an incoming req see
system.mem_ctrls.wrQLenPdf::2                       0                       # What write queue length does an incoming req see
system.mem_ctrls.wrQLenPdf::3                       0                       # What write queue length does an incoming req see
system.mem_ctrls.wrQLenPdf::4                       0                       # What write queue length does an incoming req see
system.mem_ctrls.wrQLenPdf::5                       0                       # What write queue length does an incoming req see
system.mem_ctrls.wrQLenPdf::6                       0                       # What write queue length does an incoming req see
system.mem_ctrls.wrQLenPdf::7                       0                       # What write queue length does an incoming req see
system.mem_ctrls.wrQLenPdf::8                       0                       # What write queue length does an incoming req see
system.mem_ctrls.wrQLenPdf::9                       0                       # What write queue length does an incoming req see
system.mem_ctrls.wrQLenPdf::10                      0                       # What write queue length does an incoming req see
system.mem_ctrls.wrQLenPdf::11                      0                       # What write queue length does an incoming req see
system.mem_ctrls.wrQLenPdf::12                      0                       # What write queue length does an incoming req see
system.mem_ctrls.wrQLenPdf::13                      0                       # What write queue length does an incoming req see
system.mem_ctrls.wrQLenPdf::14                      0                       # What write queue length does an incoming req see
system.mem_ctrls.wrQLenPdf::15                      0                       # What write queue length does an incoming req see
system.mem_ctrls.wrQLenPdf::16                      0                       # What write queue length does an incoming req see
system.mem_ctrls.wrQLenPdf::17                      0                       # What write queue length does an incoming req see
system.mem_ctrls.wrQLenPdf::18                      0                       # What write queue length does an incoming req see
system.mem_ctrls.wrQLenPdf::19                      0                       # What write queue length does an incoming req see
system.mem_ctrls.wrQLenPdf::20                      0                       # What write queue length does an incoming req see
system.mem_ctrls.wrQLenPdf::21                      0                       # What write queue length does an incoming req see
system.mem_ctrls.wrQLenPdf::22                      0                       # What write queue length does an incoming req see
system.mem_ctrls.wrQLenPdf::23                      0                       # What write queue length does an incoming req see
system.mem_ctrls.wrQLenPdf::24                      0                       # What write queue length does an incoming req see
system.mem_ctrls.wrQLenPdf::25                      0                       # What write queue length does an incoming req see
system.mem_ctrls.wrQLenPdf::26                      0                       # What write queue length does an incoming req see
system.mem_ctrls.wrQLenPdf::27                      0                       # What write queue length does an incoming req see
system.mem_ctrls.wrQLenPdf::28                      0                       # What write queue length does an incoming req see
system.mem_ctrls.wrQLenPdf::29                      0                       # What write queue length does an incoming req see
system.mem_ctrls.wrQLenPdf::30                      0                       # What write queue length does an incoming req see
system.mem_ctrls.wrQLenPdf::31                      0                       # What write queue length does an incoming req see
system.mem_ctrls.wrQLenPdf::32                      0                       # What write queue length does an incoming req see
system.mem_ctrls.wrQLenPdf::33                      0                       # What write queue length does an incoming req see
system.mem_ctrls.wrQLenPdf::34                      0                       # What write queue length does an incoming req see
system.mem_ctrls.wrQLenPdf::35                      0                       # What write queue length does an incoming req see
system.mem_ctrls.wrQLenPdf::36                      0                       # What write queue length does an incoming req see
system.mem_ctrls.wrQLenPdf::37                      0                       # What write queue length does an incoming req see
system.mem_ctrls.wrQLenPdf::38                      0                       # What write queue length does an incoming req see
system.mem_ctrls.wrQLenPdf::39                      0                       # What write queue length does an incoming req see
system.mem_ctrls.wrQLenPdf::40                      0                       # What write queue length does an incoming req see
system.mem_ctrls.wrQLenPdf::41                      0                       # What write queue length does an incoming req see
system.mem_ctrls.wrQLenPdf::42                      0                       # What write queue length does an incoming req see
system.mem_ctrls.wrQLenPdf::43                      0                       # What write queue length does an incoming req see
system.mem_ctrls.wrQLenPdf::44                      0                       # What write queue length does an incoming req see
system.mem_ctrls.wrQLenPdf::45                      0                       # What write queue length does an incoming req see
system.mem_ctrls.wrQLenPdf::46                      0                       # What write queue length does an incoming req see
system.mem_ctrls.wrQLenPdf::47                      0                       # What write queue length does an incoming req see
system.mem_ctrls.wrQLenPdf::48                      0                       # What write queue length does an incoming req see
system.mem_ctrls.wrQLenPdf::49                      0                       # What write queue length does an incoming req see
system.mem_ctrls.wrQLenPdf::50                      0                       # What write queue length does an incoming req see
system.mem_ctrls.wrQLenPdf::51                      0                       # What write queue length does an incoming req see
system.mem_ctrls.wrQLenPdf::52                      0                       # What write queue length does an incoming req see
system.mem_ctrls.wrQLenPdf::53                      0                       # What write queue length does an incoming req see
system.mem_ctrls.wrQLenPdf::54                      0                       # What write queue length does an incoming req see
system.mem_ctrls.wrQLenPdf::55                      0                       # What write queue length does an incoming req see
system.mem_ctrls.wrQLenPdf::56                      0                       # What write queue length does an incoming req see
system.mem_ctrls.wrQLenPdf::57                      0                       # What write queue length does an incoming req see
system.mem_ctrls.wrQLenPdf::58                      0                       # What write queue length does an incoming req see
system.mem_ctrls.wrQLenPdf::59                      0                       # What write queue length does an incoming req see
system.mem_ctrls.wrQLenPdf::60                      0                       # What write queue length does an incoming req see
system.mem_ctrls.wrQLenPdf::61                      0                       # What write queue length does an incoming req see
system.mem_ctrls.wrQLenPdf::62                      0                       # What write queue length does an incoming req see
system.mem_ctrls.wrQLenPdf::63                      0                       # What write queue length does an incoming req see
system.mem_ctrls.bytesPerActivate::samples          547                       # Bytes accessed per row activation
system.mem_ctrls.bytesPerActivate::mean    366.800731                       # Bytes accessed per row activation
system.mem_ctrls.bytesPerActivate::gmean   200.766088                       # Bytes accessed per row activation
system.mem_ctrls.bytesPerActivate::stdev   380.442574                       # Bytes accessed per row activation
system.mem_ctrls.bytesPerActivate::0-127          213     38.94%     38.94% # Bytes accessed per row activation
system.mem_ctrls.bytesPerActivate::128-255          101     18.46%     57.40% # Bytes accessed per row activation
system.mem_ctrls.bytesPerActivate::256-383           45      8.23%     65.63% # Bytes accessed per row activation
system.mem_ctrls.bytesPerActivate::384-511           19      3.47%     69.10% # Bytes accessed per row activation
system.mem_ctrls.bytesPerActivate::512-639           29      5.30%     74.41% # Bytes accessed per row activation
system.mem_ctrls.bytesPerActivate::640-767           17      3.11%     77.51% # Bytes accessed per row activation
system.mem_ctrls.bytesPerActivate::768-895            2      0.37%     77.88% # Bytes accessed per row activation
system.mem_ctrls.bytesPerActivate::896-1023            6      1.10%     78.98% # Bytes accessed per row activation
system.mem_ctrls.bytesPerActivate::1024-1151          115     21.02%    100.00% # Bytes accessed per row activation
system.mem_ctrls.bytesPerActivate::total          547                       # Bytes accessed per row activation
system.mem_ctrls.totQLat                    134266002                       # Total ticks spent queuing
system.mem_ctrls.totMemAccLat               193291002                       # Total ticks spent from burst creation until serviced by the DRAM
system.mem_ctrls.totBusLat                   15740000                       # Total ticks spent in databus transfers
system.mem_ctrls.avgQLat                     42651.21                       # Average queueing delay per DRAM burst
system.mem_ctrls.avgBusLat                    5000.00                       # Average bus latency per DRAM burst
system.mem_ctrls.avgMemAccLat                61401.21                       # Average memory access latency per DRAM burst
system.mem_ctrls.avgRdBW                         2.00                       # Average DRAM read bandwidth in MiByte/s
system.mem_ctrls.avgWrBW                         0.00                       # Average achieved write bandwidth in MiByte/s
system.mem_ctrls.avgRdBWSys                      2.00                       # Average system read bandwidth in MiByte/s
system.mem_ctrls.avgWrBWSys                      0.00                       # Average system write bandwidth in MiByte/s
system.mem_ctrls.peakBW                      12800.00                       # Theoretical peak bandwidth in MiByte/s
system.mem_ctrls.busUtil                         0.02                       # Data bus utilization in percentage
system.mem_ctrls.busUtilRead                     0.02                       # Data bus utilization in percentage for reads
system.mem_ctrls.busUtilWrite                    0.00                       # Data bus utilization in percentage for writes
system.mem_ctrls.avgRdQLen                       1.61                       # Average read queue length when enqueuing
system.mem_ctrls.avgWrQLen                       0.00                       # Average write queue length when enqueuing
system.mem_ctrls.readRowHits                     2595                       # Number of row buffer hits during reads
system.mem_ctrls.writeRowHits                       0                       # Number of row buffer hits during writes
system.mem_ctrls.readRowHitRate                 82.43                       # Row buffer hit rate for reads
system.mem_ctrls.writeRowHitRate                  nan                       # Row buffer hit rate for writes
system.mem_ctrls.avgGap                   32075818.14                       # Average gap between requests
system.mem_ctrls.pageHitRate                    82.43                       # Row buffer hit rate, read and write combined
system.mem_ctrls_0.actEnergy                  1892100                       # Energy for activate commands per rank (pJ)
system.mem_ctrls_0.preEnergy                   994290                       # Energy for precharge commands per rank (pJ)
system.mem_ctrls_0.readEnergy                11838120                       # Energy for read commands per rank (pJ)
system.mem_ctrls_0.writeEnergy                      0                       # Energy for write commands per rank (pJ)
system.mem_ctrls_0.refreshEnergy         144440400.000000                       # Energy for refresh commands per rank (pJ)
system.mem_ctrls_0.actBackEnergy             40313250                       # Energy for active background per rank (pJ)
system.mem_ctrls_0.preBackEnergy              9472320                       # Energy for precharge background per rank (pJ)
system.mem_ctrls_0.actPowerDownEnergy       282005220                       # Energy for active power-down per rank (pJ)
system.mem_ctrls_0.prePowerDownEnergy       224638080                       # Energy for precharge power-down per rank (pJ)
system.mem_ctrls_0.selfRefreshEnergy      23957188140                       # Energy for self refresh per rank (pJ)
system.mem_ctrls_0.totalEnergy            24672854460                       # Total energy per rank (pJ)
system.mem_ctrls_0.averagePower            244.346780                       # Core power per rank (mW)
system.mem_ctrls_0.totalIdleTime         100861496484                       # Total Idle time Per DRAM Rank
system.mem_ctrls_0.memoryStateTime::IDLE     19369000                       # Time in different power states
system.mem_ctrls_0.memoryStateTime::REF      61532000                       # Time in different power states
system.mem_ctrls_0.memoryStateTime::SREF  99658079500                       # Time in different power states
system.mem_ctrls_0.memoryStateTime::PRE_PDN    584992694                       # Time in different power states
system.mem_ctrls_0.memoryStateTime::ACT      32309766                       # Time in different power states
system.mem_ctrls_0.memoryStateTime::ACT_PDN    618464540                       # Time in different power states
system.mem_ctrls_1.actEnergy                  2056320                       # Energy for activate commands per rank (pJ)
system.mem_ctrls_1.preEnergy                  1081575                       # Energy for precharge commands per rank (pJ)
system.mem_ctrls_1.readEnergy                10638600                       # Energy for read commands per rank (pJ)
system.mem_ctrls_1.writeEnergy                      0                       # Energy for write commands per rank (pJ)
system.mem_ctrls_1.refreshEnergy         205904400.000000                       # Energy for refresh commands per rank (pJ)
system.mem_ctrls_1.actBackEnergy             50816070                       # Energy for active background per rank (pJ)
system.mem_ctrls_1.preBackEnergy             13699200                       # Energy for precharge background per rank (pJ)
system.mem_ctrls_1.actPowerDownEnergy       405150870                       # Energy for active power-down per rank (pJ)
system.mem_ctrls_1.prePowerDownEnergy       312496320                       # Energy for precharge power-down per rank (pJ)
system.mem_ctrls_1.selfRefreshEnergy      23848069800                       # Energy for self refresh per rank (pJ)
system.mem_ctrls_1.totalEnergy            24849913155                       # Total energy per rank (pJ)
system.mem_ctrls_1.averagePower            246.100275                       # Core power per rank (mW)
system.mem_ctrls_1.totalIdleTime         100826998046                       # Total Idle time Per DRAM Rank
system.mem_ctrls_1.memoryStateTime::IDLE     28566500                       # Time in different power states
system.mem_ctrls_1.memoryStateTime::REF      87730000                       # Time in different power states
system.mem_ctrls_1.memoryStateTime::SREF  99125353000                       # Time in different power states
system.mem_ctrls_1.memoryStateTime::PRE_PDN    813793250                       # Time in different power states
system.mem_ctrls_1.memoryStateTime::ACT      30812204                       # Time in different power states
system.mem_ctrls_1.memoryStateTime::ACT_PDN    888492546                       # Time in different power states
system.pwrStateResidencyTicks::UNDEFINED 100974747500                       # Cumulative time (in ticks) in various power states
system.cpu.branchPred.lookups                50321861                       # Number of BP lookups
system.cpu.branchPred.condPredicted          43969398                       # Number of conditional branches predicted
system.cpu.branchPred.condIncorrect            259260                       # Number of conditional branches incorrect
system.cpu.branchPred.BTBLookups             39809717                       # Number of BTB lookups
system.cpu.branchPred.BTBHits                38109618                       # Number of BTB hits
system.cpu.branchPred.BTBCorrect                    0                       # Number of correct BTB predictions (this stat may not work properly.
system.cpu.branchPred.BTBHitPct             95.729437                       # BTB Hit Percentage
system.cpu.branchPred.usedRAS                 2807625                       # Number of times the RAS was used to get a target.
system.cpu.branchPred.RASInCorrect              76353                       # Number of incorrect RAS predictions.
system.cpu.branchPred.indirectLookups          214566                       # Number of indirect predictor lookups.
system.cpu.branchPred.indirectHits             213692                       # Number of indirect target hits.
system.cpu.branchPred.indirectMisses              874                       # Number of indirect misses.
system.cpu.branchPredindirectMispredicted          612                       # Number of mispredicted indirect branches.
system.cpu_voltage_domain.voltage                   1                       # Voltage in Volts
system.cpu_clk_domain.clock                       500                       # Clock period in ticks
system.cpu.dstage2_mmu.stage2_tlb.walker.pwrStateResidencyTicks::UNDEFINED 100974747500                       # Cumulative time (in ticks) in various power states
system.cpu.dstage2_mmu.stage2_tlb.walker.walks            0                       # Table walker walks requested
system.cpu.dstage2_mmu.stage2_tlb.walker.walkRequestOrigin_Requested::Data            0                       # Table walker requests started/completed, data/inst
system.cpu.dstage2_mmu.stage2_tlb.walker.walkRequestOrigin_Requested::Inst            0                       # Table walker requests started/completed, data/inst
system.cpu.dstage2_mmu.stage2_tlb.walker.walkRequestOrigin_Requested::total            0                       # Table walker requests started/completed, data/inst
system.cpu.dstage2_mmu.stage2_tlb.walker.walkRequestOrigin_Completed::Data            0                       # Table walker requests started/completed, data/inst
system.cpu.dstage2_mmu.stage2_tlb.walker.walkRequestOrigin_Completed::Inst            0                       # Table walker requests started/completed, data/inst
system.cpu.dstage2_mmu.stage2_tlb.walker.walkRequestOrigin_Completed::total            0                       # Table walker requests started/completed, data/inst
system.cpu.dstage2_mmu.stage2_tlb.walker.walkRequestOrigin::total            0                       # Table walker requests started/completed, data/inst
system.cpu.dstage2_mmu.stage2_tlb.inst_hits            0                       # ITB inst hits
system.cpu.dstage2_mmu.stage2_tlb.inst_misses            0                       # ITB inst misses
system.cpu.dstage2_mmu.stage2_tlb.read_hits            0                       # DTB read hits
system.cpu.dstage2_mmu.stage2_tlb.read_misses            0                       # DTB read misses
system.cpu.dstage2_mmu.stage2_tlb.write_hits            0                       # DTB write hits
system.cpu.dstage2_mmu.stage2_tlb.write_misses            0                       # DTB write misses
system.cpu.dstage2_mmu.stage2_tlb.flush_tlb            0                       # Number of times complete TLB was flushed
system.cpu.dstage2_mmu.stage2_tlb.flush_tlb_mva            0                       # Number of times TLB was flushed by MVA
system.cpu.dstage2_mmu.stage2_tlb.flush_tlb_mva_asid            0                       # Number of times TLB was flushed by MVA & ASID
system.cpu.dstage2_mmu.stage2_tlb.flush_tlb_asid            0                       # Number of times TLB was flushed by ASID
system.cpu.dstage2_mmu.stage2_tlb.flush_entries            0                       # Number of entries that have been flushed from TLB
system.cpu.dstage2_mmu.stage2_tlb.align_faults            0                       # Number of TLB faults due to alignment restrictions
system.cpu.dstage2_mmu.stage2_tlb.prefetch_faults            0                       # Number of TLB faults due to prefetch
system.cpu.dstage2_mmu.stage2_tlb.domain_faults            0                       # Number of TLB faults due to domain restrictions
system.cpu.dstage2_mmu.stage2_tlb.perms_faults            0                       # Number of TLB faults due to permissions restrictions
system.cpu.dstage2_mmu.stage2_tlb.read_accesses            0                       # DTB read accesses
system.cpu.dstage2_mmu.stage2_tlb.write_accesses            0                       # DTB write accesses
system.cpu.dstage2_mmu.stage2_tlb.inst_accesses            0                       # ITB inst accesses
system.cpu.dstage2_mmu.stage2_tlb.hits              0                       # DTB hits
system.cpu.dstage2_mmu.stage2_tlb.misses            0                       # DTB misses
system.cpu.dstage2_mmu.stage2_tlb.accesses            0                       # DTB accesses
system.cpu.dtb.walker.pwrStateResidencyTicks::UNDEFINED 100974747500                       # Cumulative time (in ticks) in various power states
system.cpu.dtb.walker.walks                         0                       # Table walker walks requested
system.cpu.dtb.walker.walkRequestOrigin_Requested::Data            0                       # Table walker requests started/completed, data/inst
system.cpu.dtb.walker.walkRequestOrigin_Requested::Inst            0                       # Table walker requests started/completed, data/inst
system.cpu.dtb.walker.walkRequestOrigin_Requested::total            0                       # Table walker requests started/completed, data/inst
system.cpu.dtb.walker.walkRequestOrigin_Completed::Data            0                       # Table walker requests started/completed, data/inst
system.cpu.dtb.walker.walkRequestOrigin_Completed::Inst            0                       # Table walker requests started/completed, data/inst
system.cpu.dtb.walker.walkRequestOrigin_Completed::total            0                       # Table walker requests started/completed, data/inst
system.cpu.dtb.walker.walkRequestOrigin::total            0                       # Table walker requests started/completed, data/inst
system.cpu.dtb.inst_hits                            0                       # ITB inst hits
system.cpu.dtb.inst_misses                          0                       # ITB inst misses
system.cpu.dtb.read_hits                            0                       # DTB read hits
system.cpu.dtb.read_misses                          0                       # DTB read misses
system.cpu.dtb.write_hits                           0                       # DTB write hits
system.cpu.dtb.write_misses                         0                       # DTB write misses
system.cpu.dtb.flush_tlb                            0                       # Number of times complete TLB was flushed
system.cpu.dtb.flush_tlb_mva                        0                       # Number of times TLB was flushed by MVA
system.cpu.dtb.flush_tlb_mva_asid                   0                       # Number of times TLB was flushed by MVA & ASID
system.cpu.dtb.flush_tlb_asid                       0                       # Number of times TLB was flushed by ASID
system.cpu.dtb.flush_entries                        0                       # Number of entries that have been flushed from TLB
system.cpu.dtb.align_faults                         0                       # Number of TLB faults due to alignment restrictions
system.cpu.dtb.prefetch_faults                      0                       # Number of TLB faults due to prefetch
system.cpu.dtb.domain_faults                        0                       # Number of TLB faults due to domain restrictions
system.cpu.dtb.perms_faults                         0                       # Number of TLB faults due to permissions restrictions
system.cpu.dtb.read_accesses                        0                       # DTB read accesses
system.cpu.dtb.write_accesses                       0                       # DTB write accesses
system.cpu.dtb.inst_accesses                        0                       # ITB inst accesses
system.cpu.dtb.hits                                 0                       # DTB hits
system.cpu.dtb.misses                               0                       # DTB misses
system.cpu.dtb.accesses                             0                       # DTB accesses
system.cpu.istage2_mmu.stage2_tlb.walker.pwrStateResidencyTicks::UNDEFINED 100974747500                       # Cumulative time (in ticks) in various power states
system.cpu.istage2_mmu.stage2_tlb.walker.walks            0                       # Table walker walks requested
system.cpu.istage2_mmu.stage2_tlb.walker.walkRequestOrigin_Requested::Data            0                       # Table walker requests started/completed, data/inst
system.cpu.istage2_mmu.stage2_tlb.walker.walkRequestOrigin_Requested::Inst            0                       # Table walker requests started/completed, data/inst
system.cpu.istage2_mmu.stage2_tlb.walker.walkRequestOrigin_Requested::total            0                       # Table walker requests started/completed, data/inst
system.cpu.istage2_mmu.stage2_tlb.walker.walkRequestOrigin_Completed::Data            0                       # Table walker requests started/completed, data/inst
system.cpu.istage2_mmu.stage2_tlb.walker.walkRequestOrigin_Completed::Inst            0                       # Table walker requests started/completed, data/inst
system.cpu.istage2_mmu.stage2_tlb.walker.walkRequestOrigin_Completed::total            0                       # Table walker requests started/completed, data/inst
system.cpu.istage2_mmu.stage2_tlb.walker.walkRequestOrigin::total            0                       # Table walker requests started/completed, data/inst
system.cpu.istage2_mmu.stage2_tlb.inst_hits            0                       # ITB inst hits
system.cpu.istage2_mmu.stage2_tlb.inst_misses            0                       # ITB inst misses
system.cpu.istage2_mmu.stage2_tlb.read_hits            0                       # DTB read hits
system.cpu.istage2_mmu.stage2_tlb.read_misses            0                       # DTB read misses
system.cpu.istage2_mmu.stage2_tlb.write_hits            0                       # DTB write hits
system.cpu.istage2_mmu.stage2_tlb.write_misses            0                       # DTB write misses
system.cpu.istage2_mmu.stage2_tlb.flush_tlb            0                       # Number of times complete TLB was flushed
system.cpu.istage2_mmu.stage2_tlb.flush_tlb_mva            0                       # Number of times TLB was flushed by MVA
system.cpu.istage2_mmu.stage2_tlb.flush_tlb_mva_asid            0                       # Number of times TLB was flushed by MVA & ASID
system.cpu.istage2_mmu.stage2_tlb.flush_tlb_asid            0                       # Number of times TLB was flushed by ASID
system.cpu.istage2_mmu.stage2_tlb.flush_entries            0                       # Number of entries that have been flushed from TLB
system.cpu.istage2_mmu.stage2_tlb.align_faults            0                       # Number of TLB faults due to alignment restrictions
system.cpu.istage2_mmu.stage2_tlb.prefetch_faults            0                       # Number of TLB faults due to prefetch
system.cpu.istage2_mmu.stage2_tlb.domain_faults            0                       # Number of TLB faults due to domain restrictions
system.cpu.istage2_mmu.stage2_tlb.perms_faults            0                       # Number of TLB faults due to permissions restrictions
system.cpu.istage2_mmu.stage2_tlb.read_accesses            0                       # DTB read accesses
system.cpu.istage2_mmu.stage2_tlb.write_accesses            0                       # DTB write accesses
system.cpu.istage2_mmu.stage2_tlb.inst_accesses            0                       # ITB inst accesses
system.cpu.istage2_mmu.stage2_tlb.hits              0                       # DTB hits
system.cpu.istage2_mmu.stage2_tlb.misses            0                       # DTB misses
system.cpu.istage2_mmu.stage2_tlb.accesses            0                       # DTB accesses
system.cpu.itb.walker.pwrStateResidencyTicks::UNDEFINED 100974747500                       # Cumulative time (in ticks) in various power states
system.cpu.itb.walker.walks                         0                       # Table walker walks requested
system.cpu.itb.walker.walkRequestOrigin_Requested::Data            0                       # Table walker requests started/completed, data/inst
system.cpu.itb.walker.walkRequestOrigin_Requested::Inst            0                       # Table walker requests started/completed, data/inst
system.cpu.itb.walker.walkRequestOrigin_Requested::total            0                       # Table walker requests started/completed, data/inst
system.cpu.itb.walker.walkRequestOrigin_Completed::Data            0                       # Table walker requests started/completed, data/inst
system.cpu.itb.walker.walkRequestOrigin_Completed::Inst            0                       # Table walker requests started/completed, data/inst
system.cpu.itb.walker.walkRequestOrigin_Completed::total            0                       # Table walker requests started/completed, data/inst
system.cpu.itb.walker.walkRequestOrigin::total            0                       # Table walker requests started/completed, data/inst
system.cpu.itb.inst_hits                            0                       # ITB inst hits
system.cpu.itb.inst_misses                          0                       # ITB inst misses
system.cpu.itb.read_hits                            0                       # DTB read hits
system.cpu.itb.read_misses                          0                       # DTB read misses
system.cpu.itb.write_hits                           0                       # DTB write hits
system.cpu.itb.write_misses                         0                       # DTB write misses
system.cpu.itb.flush_tlb                            0                       # Number of times complete TLB was flushed
system.cpu.itb.flush_tlb_mva                        0                       # Number of times TLB was flushed by MVA
system.cpu.itb.flush_tlb_mva_asid                   0                       # Number of times TLB was flushed by MVA & ASID
system.cpu.itb.flush_tlb_asid                       0                       # Number of times TLB was flushed by ASID
system.cpu.itb.flush_entries                        0                       # Number of entries that have been flushed from TLB
system.cpu.itb.align_faults                         0                       # Number of TLB faults due to alignment restrictions
system.cpu.itb.prefetch_faults                      0                       # Number of TLB faults due to prefetch
system.cpu.itb.domain_faults                        0                       # Number of TLB faults due to domain restrictions
system.cpu.itb.perms_faults                         0                       # Number of TLB faults due to permissions restrictions
system.cpu.itb.read_accesses                        0                       # DTB read accesses
system.cpu.itb.write_accesses                       0                       # DTB write accesses
system.cpu.itb.inst_accesses                        0                       # ITB inst accesses
system.cpu.itb.hits                                 0                       # DTB hits
system.cpu.itb.misses                               0                       # DTB misses
system.cpu.itb.accesses                             0                       # DTB accesses
system.cpu.workload.numSyscalls                    16                       # Number of system calls
system.cpu.pwrStateResidencyTicks::ON    100974747500                       # Cumulative time (in ticks) in various power states
system.cpu.numCycles                        201949496                       # number of cpu cycles simulated
system.cpu.numWorkItemsStarted                      0                       # number of work items this cpu started
system.cpu.numWorkItemsCompleted                    0                       # number of work items this cpu completed
system.cpu.fetch.icacheStallCycles             332526                       # Number of cycles fetch is stalled on an Icache miss
system.cpu.fetch.Insts                      411573869                       # Number of instructions fetch has processed
system.cpu.fetch.Branches                    50321861                       # Number of branches that fetch encountered
system.cpu.fetch.predictedBranches           41130935                       # Number of branches that fetch has predicted taken
system.cpu.fetch.Cycles                     201147794                       # Number of cycles fetch has run and was not squashing or blocked
system.cpu.fetch.SquashCycles                  582124                       # Number of cycles fetch has spent squashing
system.cpu.fetch.MiscStallCycles                  835                       # Number of cycles fetch has spent waiting on interrupts, or bad addresses, or out of MSHRs
system.cpu.fetch.PendingTrapStallCycles           185                       # Number of stall cycles due to pending traps
system.cpu.fetch.IcacheWaitRetryStallCycles         1409                       # Number of stall cycles due to full MSHR
system.cpu.fetch.CacheLines                 121193393                       # Number of cache lines fetched
system.cpu.fetch.IcacheSquashes                  1515                       # Number of outstanding Icache misses that were squashed
system.cpu.fetch.rateDist::samples          201773811                       # Number of instructions fetched each cycle (Total)
system.cpu.fetch.rateDist::mean              2.127177                       # Number of instructions fetched each cycle (Total)
system.cpu.fetch.rateDist::stdev             1.027531                       # Number of instructions fetched each cycle (Total)
system.cpu.fetch.rateDist::underflows               0      0.00%      0.00% # Number of instructions fetched each cycle (Total)
system.cpu.fetch.rateDist::0                  7803598      3.87%      3.87% # Number of instructions fetched each cycle (Total)
system.cpu.fetch.rateDist::1                 71908882     35.64%     39.51% # Number of instructions fetched each cycle (Total)
system.cpu.fetch.rateDist::2                  8884168      4.40%     43.91% # Number of instructions fetched each cycle (Total)
system.cpu.fetch.rateDist::3                113177163     56.09%    100.00% # Number of instructions fetched each cycle (Total)
system.cpu.fetch.rateDist::overflows                0      0.00%    100.00% # Number of instructions fetched each cycle (Total)
system.cpu.fetch.rateDist::min_value                0                       # Number of instructions fetched each cycle (Total)
system.cpu.fetch.rateDist::max_value                3                       # Number of instructions fetched each cycle (Total)
system.cpu.fetch.rateDist::total            201773811                       # Number of instructions fetched each cycle (Total)
system.cpu.fetch.branchRate                  0.249180                       # Number of branch fetches per cycle
system.cpu.fetch.rate                        2.038004                       # Number of inst fetches per cycle
system.cpu.decode.IdleCycles                  9052683                       # Number of cycles decode is idle
system.cpu.decode.BlockedCycles              17126478                       # Number of cycles decode is blocked
system.cpu.decode.RunCycles                 163823964                       # Number of cycles decode is running
system.cpu.decode.UnblockCycles              11542624                       # Number of cycles decode is unblocking
system.cpu.decode.SquashCycles                 228062                       # Number of cycles decode is squashing
system.cpu.decode.BranchResolved             37952996                       # Number of times decode resolved a branch
system.cpu.decode.BranchMispred                 63232                       # Number of times decode detected a branch misprediction
system.cpu.decode.DecodedInsts              424729723                       # Number of instructions handled by decode
system.cpu.decode.SquashedInsts               1198871                       # Number of squashed instructions handled by decode
system.cpu.rename.SquashCycles                 228062                       # Number of cycles rename is squashing
system.cpu.rename.IdleCycles                 16399372                       # Number of cycles rename is idle
system.cpu.rename.BlockCycles                 1162368                       # Number of cycles rename is blocking
system.cpu.rename.serializeStallCycles        2451777                       # count of cycles rename stalled for serializing inst
system.cpu.rename.RunCycles                 167828758                       # Number of cycles rename is running
system.cpu.rename.UnblockCycles              13703474                       # Number of cycles rename is unblocking
system.cpu.rename.RenamedInsts              423780435                       # Number of instructions processed by rename
system.cpu.rename.SquashedInsts                448195                       # Number of squashed instructions processed by rename
system.cpu.rename.ROBFullEvents               4329747                       # Number of times rename has blocked due to ROB full
system.cpu.rename.IQFullEvents                4070505                       # Number of times rename has blocked due to IQ full
system.cpu.rename.LQFullEvents                    631                       # Number of times rename has blocked due to LQ full
system.cpu.rename.SQFullEvents                  41111                       # Number of times rename has blocked due to SQ full
system.cpu.rename.RenamedOperands           582865793                       # Number of destination operands rename has renamed
system.cpu.rename.RenameLookups            2127805535                       # Number of register rename lookups that rename has made
system.cpu.rename.int_rename_lookups        713384363                       # Number of integer rename lookups
system.cpu.rename.fp_rename_lookups                16                       # Number of floating rename lookups
system.cpu.rename.CommittedMaps             576947938                       # Number of HB maps that are committed
system.cpu.rename.UndoneMaps                  5917854                       # Number of HB maps that are undone due to squashing
system.cpu.rename.serializingInsts             155357                       # count of serializing insts renamed
system.cpu.rename.tempSerializingInsts          31577                       # count of temporary serializing insts renamed
system.cpu.rename.skidInsts                  24295138                       # count of insts added to the skid buffer
system.cpu.memDep0.insertedLoads             37681622                       # Number of loads inserted to the mem dependence unit.
system.cpu.memDep0.insertedStores            38075450                       # Number of stores inserted to the mem dependence unit.
system.cpu.memDep0.conflictingLoads            440084                       # Number of conflicting loads.
system.cpu.memDep0.conflictingStores           375421                       # Number of conflicting stores.
system.cpu.iq.iqInstsAdded                  423188384                       # Number of instructions added to the IQ (excludes non-spec)
system.cpu.iq.iqNonSpecInstsAdded               32173                       # Number of non-speculative instructions added to the IQ
system.cpu.iq.iqInstsIssued                 421909861                       # Number of instructions issued
system.cpu.iq.iqSquashedInstsIssued            367560                       # Number of squashed instructions issued
system.cpu.iq.iqSquashedInstsExamined         4161043                       # Number of squashed instructions iterated over during squash; mainly for profiling
system.cpu.iq.iqSquashedOperandsExamined     12502217                       # Number of squashed operands that are examined and possibly removed from graph
system.cpu.iq.iqSquashedNonSpecRemoved             65                       # Number of squashed non-spec instructions that were removed
system.cpu.iq.issued_per_cycle::samples     201773811                       # Number of insts issued each cycle
system.cpu.iq.issued_per_cycle::mean         2.091004                       # Number of insts issued each cycle
system.cpu.iq.issued_per_cycle::stdev        0.716602                       # Number of insts issued each cycle
system.cpu.iq.issued_per_cycle::underflows            0      0.00%      0.00% # Number of insts issued each cycle
system.cpu.iq.issued_per_cycle::0             5429768      2.69%      2.69% # Number of insts issued each cycle
system.cpu.iq.issued_per_cycle::1            25536418     12.66%     15.35% # Number of insts issued each cycle
system.cpu.iq.issued_per_cycle::2           117685327     58.33%     73.67% # Number of insts issued each cycle
system.cpu.iq.issued_per_cycle::3            51486421     25.52%     99.19% # Number of insts issued each cycle
system.cpu.iq.issued_per_cycle::4             1635859      0.81%    100.00% # Number of insts issued each cycle
system.cpu.iq.issued_per_cycle::5                  18      0.00%    100.00% # Number of insts issued each cycle
system.cpu.iq.issued_per_cycle::6                   0      0.00%    100.00% # Number of insts issued each cycle
system.cpu.iq.issued_per_cycle::7                   0      0.00%    100.00% # Number of insts issued each cycle
system.cpu.iq.issued_per_cycle::8                   0      0.00%    100.00% # Number of insts issued each cycle
system.cpu.iq.issued_per_cycle::overflows            0      0.00%    100.00% # Number of insts issued each cycle
system.cpu.iq.issued_per_cycle::min_value            0                       # Number of insts issued each cycle
system.cpu.iq.issued_per_cycle::max_value            5                       # Number of insts issued each cycle
system.cpu.iq.issued_per_cycle::total       201773811                       # Number of insts issued each cycle
system.cpu.iq.fu_full::No_OpClass                   0      0.00%      0.00% # attempts to use FU when none available
system.cpu.iq.fu_full::IntAlu                74400792     86.51%     86.51% # attempts to use FU when none available
system.cpu.iq.fu_full::IntMult                     21      0.00%     86.51% # attempts to use FU when none available
system.cpu.iq.fu_full::IntDiv                       0      0.00%     86.51% # attempts to use FU when none available
system.cpu.iq.fu_full::FloatAdd                     0      0.00%     86.51% # attempts to use FU when none available
system.cpu.iq.fu_full::FloatCmp                     0      0.00%     86.51% # attempts to use FU when none available
system.cpu.iq.fu_full::FloatCvt                     0      0.00%     86.51% # attempts to use FU when none available
system.cpu.iq.fu_full::FloatMult                    0      0.00%     86.51% # attempts to use FU when none available
system.cpu.iq.fu_full::FloatMultAcc                 0      0.00%     86.51% # attempts to use FU when none available
system.cpu.iq.fu_full::FloatDiv                     0      0.00%     86.51% # attempts to use FU when none available
system.cpu.iq.fu_full::FloatMisc                    0      0.00%     86.51% # attempts to use FU when none available
system.cpu.iq.fu_full::FloatSqrt                    0      0.00%     86.51% # attempts to use FU when none available
system.cpu.iq.fu_full::SimdAdd                      0      0.00%     86.51% # attempts to use FU when none available
system.cpu.iq.fu_full::SimdAddAcc                   0      0.00%     86.51% # attempts to use FU when none available
system.cpu.iq.fu_full::SimdAlu                      0      0.00%     86.51% # attempts to use FU when none available
system.cpu.iq.fu_full::SimdCmp                      0      0.00%     86.51% # attempts to use FU when none available
system.cpu.iq.fu_full::SimdCvt                      0      0.00%     86.51% # attempts to use FU when none available
system.cpu.iq.fu_full::SimdMisc                     0      0.00%     86.51% # attempts to use FU when none available
system.cpu.iq.fu_full::SimdMult                     0      0.00%     86.51% # attempts to use FU when none available
system.cpu.iq.fu_full::SimdMultAcc                  0      0.00%     86.51% # attempts to use FU when none available
system.cpu.iq.fu_full::SimdShift                    0      0.00%     86.51% # attempts to use FU when none available
system.cpu.iq.fu_full::SimdShiftAcc                 0      0.00%     86.51% # attempts to use FU when none available
system.cpu.iq.fu_full::SimdSqrt                     0      0.00%     86.51% # attempts to use FU when none available
system.cpu.iq.fu_full::SimdFloatAdd                 0      0.00%     86.51% # attempts to use FU when none available
system.cpu.iq.fu_full::SimdFloatAlu                 0      0.00%     86.51% # attempts to use FU when none available
system.cpu.iq.fu_full::SimdFloatCmp                 0      0.00%     86.51% # attempts to use FU when none available
system.cpu.iq.fu_full::SimdFloatCvt                 0      0.00%     86.51% # attempts to use FU when none available
system.cpu.iq.fu_full::SimdFloatDiv                 0      0.00%     86.51% # attempts to use FU when none available
system.cpu.iq.fu_full::SimdFloatMisc                0      0.00%     86.51% # attempts to use FU when none available
system.cpu.iq.fu_full::SimdFloatMult                0      0.00%     86.51% # attempts to use FU when none available
system.cpu.iq.fu_full::SimdFloatMultAcc             0      0.00%     86.51% # attempts to use FU when none available
system.cpu.iq.fu_full::SimdFloatSqrt                0      0.00%     86.51% # attempts to use FU when none available
system.cpu.iq.fu_full::MemRead                5657585      6.58%     93.09% # attempts to use FU when none available
system.cpu.iq.fu_full::MemWrite               5940796      6.91%    100.00% # attempts to use FU when none available
system.cpu.iq.fu_full::FloatMemRead                 0      0.00%    100.00% # attempts to use FU when none available
system.cpu.iq.fu_full::FloatMemWrite               14      0.00%    100.00% # attempts to use FU when none available
system.cpu.iq.fu_full::IprAccess                    0      0.00%    100.00% # attempts to use FU when none available
system.cpu.iq.fu_full::InstPrefetch                 0      0.00%    100.00% # attempts to use FU when none available
system.cpu.iq.FU_type_0::No_OpClass                10      0.00%      0.00% # Type of FU issued
system.cpu.iq.FU_type_0::IntAlu             343619197     81.44%     81.44% # Type of FU issued
system.cpu.iq.FU_type_0::IntMult              1597452      0.38%     81.82% # Type of FU issued
system.cpu.iq.FU_type_0::IntDiv                     0      0.00%     81.82% # Type of FU issued
system.cpu.iq.FU_type_0::FloatAdd                   0      0.00%     81.82% # Type of FU issued
system.cpu.iq.FU_type_0::FloatCmp                   0      0.00%     81.82% # Type of FU issued
system.cpu.iq.FU_type_0::FloatCvt                   0      0.00%     81.82% # Type of FU issued
system.cpu.iq.FU_type_0::FloatMult                  0      0.00%     81.82% # Type of FU issued
system.cpu.iq.FU_type_0::FloatMultAcc               0      0.00%     81.82% # Type of FU issued
system.cpu.iq.FU_type_0::FloatDiv                   0      0.00%     81.82% # Type of FU issued
system.cpu.iq.FU_type_0::FloatMisc                  0      0.00%     81.82% # Type of FU issued
system.cpu.iq.FU_type_0::FloatSqrt                  0      0.00%     81.82% # Type of FU issued
system.cpu.iq.FU_type_0::SimdAdd                    0      0.00%     81.82% # Type of FU issued
system.cpu.iq.FU_type_0::SimdAddAcc                 0      0.00%     81.82% # Type of FU issued
system.cpu.iq.FU_type_0::SimdAlu                    0      0.00%     81.82% # Type of FU issued
system.cpu.iq.FU_type_0::SimdCmp                    0      0.00%     81.82% # Type of FU issued
system.cpu.iq.FU_type_0::SimdCvt                    0      0.00%     81.82% # Type of FU issued
system.cpu.iq.FU_type_0::SimdMisc                   0      0.00%     81.82% # Type of FU issued
system.cpu.iq.FU_type_0::SimdMult                   0      0.00%     81.82% # Type of FU issued
system.cpu.iq.FU_type_0::SimdMultAcc                0      0.00%     81.82% # Type of FU issued
system.cpu.iq.FU_type_0::SimdShift                  0      0.00%     81.82% # Type of FU issued
system.cpu.iq.FU_type_0::SimdShiftAcc               0      0.00%     81.82% # Type of FU issued
system.cpu.iq.FU_type_0::SimdSqrt                   0      0.00%     81.82% # Type of FU issued
system.cpu.iq.FU_type_0::SimdFloatAdd               0      0.00%     81.82% # Type of FU issued
system.cpu.iq.FU_type_0::SimdFloatAlu               0      0.00%     81.82% # Type of FU issued
system.cpu.iq.FU_type_0::SimdFloatCmp               0      0.00%     81.82% # Type of FU issued
system.cpu.iq.FU_type_0::SimdFloatCvt               0      0.00%     81.82% # Type of FU issued
system.cpu.iq.FU_type_0::SimdFloatDiv               0      0.00%     81.82% # Type of FU issued
system.cpu.iq.FU_type_0::SimdFloatMisc         154681      0.04%     81.86% # Type of FU issued
system.cpu.iq.FU_type_0::SimdFloatMult              0      0.00%     81.86% # Type of FU issued
system.cpu.iq.FU_type_0::SimdFloatMultAcc            0      0.00%     81.86% # Type of FU issued
system.cpu.iq.FU_type_0::SimdFloatSqrt              0      0.00%     81.86% # Type of FU issued
system.cpu.iq.FU_type_0::MemRead             38644303      9.16%     91.02% # Type of FU issued
system.cpu.iq.FU_type_0::MemWrite            37894202      8.98%    100.00% # Type of FU issued
system.cpu.iq.FU_type_0::FloatMemRead               0      0.00%    100.00% # Type of FU issued
system.cpu.iq.FU_type_0::FloatMemWrite             16      0.00%    100.00% # Type of FU issued
system.cpu.iq.FU_type_0::IprAccess                  0      0.00%    100.00% # Type of FU issued
system.cpu.iq.FU_type_0::InstPrefetch               0      0.00%    100.00% # Type of FU issued
system.cpu.iq.FU_type_0::total              421909861                       # Type of FU issued
system.cpu.iq.rate                           2.089185                       # Inst issue rate
system.cpu.iq.fu_busy_cnt                    85999208                       # FU busy when requested
system.cpu.iq.fu_busy_rate                   0.203833                       # FU busy rate (busy events/executed inst)
system.cpu.iq.int_inst_queue_reads         1131960255                       # Number of integer instruction queue reads
system.cpu.iq.int_inst_queue_writes         427382477                       # Number of integer instruction queue writes
system.cpu.iq.int_inst_queue_wakeup_accesses    420403459                       # Number of integer instruction queue wakeup accesses
system.cpu.iq.fp_inst_queue_reads                  46                       # Number of floating instruction queue reads
system.cpu.iq.fp_inst_queue_writes                 16                       # Number of floating instruction queue writes
system.cpu.iq.fp_inst_queue_wakeup_accesses           16                       # Number of floating instruction queue wakeup accesses
system.cpu.iq.vec_inst_queue_reads                  0                       # Number of vector instruction queue reads
system.cpu.iq.vec_inst_queue_writes                 0                       # Number of vector instruction queue writes
system.cpu.iq.vec_inst_queue_wakeup_accesses            0                       # Number of vector instruction queue wakeup accesses
system.cpu.iq.int_alu_accesses              507909029                       # Number of integer alu accesses
system.cpu.iq.fp_alu_accesses                      30                       # Number of floating point alu accesses
system.cpu.iq.vec_alu_accesses                      0                       # Number of vector alu accesses
system.cpu.iew.lsq.thread0.forwLoads           435652                       # Number of loads that had data forwarded from stores
system.cpu.iew.lsq.thread0.invAddrLoads             0                       # Number of loads ignored due to an invalid address
system.cpu.iew.lsq.thread0.squashedLoads       492913                       # Number of loads squashed
system.cpu.iew.lsq.thread0.ignoredResponses          159                       # Number of memory responses ignored because the instruction is squashed
system.cpu.iew.lsq.thread0.memOrderViolation          893                       # Number of memory ordering violations
system.cpu.iew.lsq.thread0.squashedStores       373309                       # Number of stores squashed
system.cpu.iew.lsq.thread0.invAddrSwpfs             0                       # Number of software prefetches ignored due to an invalid address
system.cpu.iew.lsq.thread0.blockedLoads             0                       # Number of blocked loads due to partial load-store forwarding
system.cpu.iew.lsq.thread0.rescheduledLoads      1002911                       # Number of loads that were rescheduled
system.cpu.iew.lsq.thread0.cacheBlocked          2070                       # Number of times an access to memory failed due to the cache being blocked
system.cpu.iew.iewIdleCycles                        0                       # Number of cycles IEW is idle
system.cpu.iew.iewSquashCycles                 228062                       # Number of cycles IEW is squashing
system.cpu.iew.iewBlockCycles                  371579                       # Number of cycles IEW is blocking
system.cpu.iew.iewUnblockCycles                   406                       # Number of cycles IEW is unblocking
system.cpu.iew.iewDispatchedInsts           423220564                       # Number of instructions dispatched to IQ
system.cpu.iew.iewDispSquashedInsts                 0                       # Number of squashed instructions skipped by dispatch
system.cpu.iew.iewDispLoadInsts              37681622                       # Number of dispatched load instructions
system.cpu.iew.iewDispStoreInsts             38075450                       # Number of dispatched store instructions
system.cpu.iew.iewDispNonSpecInsts              31589                       # Number of dispatched non-speculative instructions
system.cpu.iew.iewIQFullEvents                     94                       # Number of times the IQ has become full, causing a stall
system.cpu.iew.iewLSQFullEvents                   196                       # Number of times the LSQ has become full, causing a stall
system.cpu.iew.memOrderViolationEvents            893                       # Number of memory order violations
system.cpu.iew.predictedTakenIncorrect         166055                       # Number of branches that were predicted taken incorrectly
system.cpu.iew.predictedNotTakenIncorrect        39537                       # Number of branches that were predicted not taken incorrectly
system.cpu.iew.branchMispredicts               205592                       # Number of branch mispredicts detected at execute
system.cpu.iew.iewExecutedInsts             421567580                       # Number of executed instructions
system.cpu.iew.iewExecLoadInsts              38497664                       # Number of load instructions executed
system.cpu.iew.iewExecSquashedInsts            342281                       # Number of squashed instructions skipped in execute
system.cpu.iew.exec_swp                             0                       # number of swp insts executed
system.cpu.iew.exec_nop                             7                       # number of nop insts executed
system.cpu.iew.exec_refs                     76328902                       # number of memory reference insts executed
system.cpu.iew.exec_branches                 49123720                       # Number of branches executed
system.cpu.iew.exec_stores                   37831238                       # Number of stores executed
system.cpu.iew.exec_rate                     2.087490                       # Inst execution rate
system.cpu.iew.wb_sent                      420454074                       # cumulative count of insts sent to commit
system.cpu.iew.wb_count                     420403475                       # cumulative count of insts written-back
system.cpu.iew.wb_producers                 320293320                       # num instructions producing a value
system.cpu.iew.wb_consumers                 796995114                       # num instructions consuming a value
system.cpu.iew.wb_rate                       2.081726                       # insts written-back per cycle
system.cpu.iew.wb_fanout                     0.401876                       # average fanout of values written-back
system.cpu.commit.commitSquashedInsts         3726592                       # The number of squashed insts skipped by commit
system.cpu.commit.commitNonSpecStalls           32108                       # The number of times commit has been forced to stall to communicate backwards
system.cpu.commit.branchMispredicts            196266                       # The number of times a branch was mispredicted
system.cpu.commit.committed_per_cycle::samples    201182527                       # Number of insts commited each cycle
system.cpu.commit.committed_per_cycle::mean     2.082982                       # Number of insts commited each cycle
system.cpu.commit.committed_per_cycle::stdev     2.074024                       # Number of insts commited each cycle
system.cpu.commit.committed_per_cycle::underflows            0      0.00%      0.00% # Number of insts commited each cycle
system.cpu.commit.committed_per_cycle::0     37422929     18.60%     18.60% # Number of insts commited each cycle
system.cpu.commit.committed_per_cycle::1     58582198     29.12%     47.72% # Number of insts commited each cycle
system.cpu.commit.committed_per_cycle::2     61329281     30.48%     78.20% # Number of insts commited each cycle
system.cpu.commit.committed_per_cycle::3      8227406      4.09%     82.29% # Number of insts commited each cycle
system.cpu.commit.committed_per_cycle::4      4539560      2.26%     84.55% # Number of insts commited each cycle
system.cpu.commit.committed_per_cycle::5     16878666      8.39%     92.94% # Number of insts commited each cycle
system.cpu.commit.committed_per_cycle::6      1157075      0.58%     93.52% # Number of insts commited each cycle
system.cpu.commit.committed_per_cycle::7       720781      0.36%     93.87% # Number of insts commited each cycle
system.cpu.commit.committed_per_cycle::8     12324631      6.13%    100.00% # Number of insts commited each cycle
system.cpu.commit.committed_per_cycle::overflows            0      0.00%    100.00% # Number of insts commited each cycle
system.cpu.commit.committed_per_cycle::min_value            0                       # Number of insts commited each cycle
system.cpu.commit.committed_per_cycle::max_value            8                       # Number of insts commited each cycle
system.cpu.commit.committed_per_cycle::total    201182527                       # Number of insts commited each cycle
system.cpu.commit.committedInsts            402752520                       # Number of instructions committed
system.cpu.commit.committedOps              419059513                       # Number of ops (including micro ops) committed
system.cpu.commit.swp_count                         0                       # Number of s/w prefetches committed
system.cpu.commit.refs                       74890850                       # Number of memory references committed
system.cpu.commit.loads                      37188709                       # Number of loads committed
system.cpu.commit.membars                         584                       # Number of memory barriers committed
system.cpu.commit.branches                   48961079                       # Number of branches committed
system.cpu.commit.vec_insts                         0                       # Number of committed Vector instructions.
system.cpu.commit.fp_insts                         16                       # Number of committed floating point instructions.
system.cpu.commit.int_insts                 376724794                       # Number of committed integer instructions.
system.cpu.commit.function_calls              3239999                       # Number of function calls committed.
system.cpu.commit.op_class_0::No_OpClass            0      0.00%      0.00% # Class of committed instruction
system.cpu.commit.op_class_0::IntAlu        342417093     81.71%     81.71% # Class of committed instruction
system.cpu.commit.op_class_0::IntMult         1596889      0.38%     82.09% # Class of committed instruction
system.cpu.commit.op_class_0::IntDiv                0      0.00%     82.09% # Class of committed instruction
system.cpu.commit.op_class_0::FloatAdd              0      0.00%     82.09% # Class of committed instruction
system.cpu.commit.op_class_0::FloatCmp              0      0.00%     82.09% # Class of committed instruction
system.cpu.commit.op_class_0::FloatCvt              0      0.00%     82.09% # Class of committed instruction
system.cpu.commit.op_class_0::FloatMult             0      0.00%     82.09% # Class of committed instruction
system.cpu.commit.op_class_0::FloatMultAcc            0      0.00%     82.09% # Class of committed instruction
system.cpu.commit.op_class_0::FloatDiv              0      0.00%     82.09% # Class of committed instruction
system.cpu.commit.op_class_0::FloatMisc             0      0.00%     82.09% # Class of committed instruction
system.cpu.commit.op_class_0::FloatSqrt             0      0.00%     82.09% # Class of committed instruction
system.cpu.commit.op_class_0::SimdAdd               0      0.00%     82.09% # Class of committed instruction
system.cpu.commit.op_class_0::SimdAddAcc            0      0.00%     82.09% # Class of committed instruction
system.cpu.commit.op_class_0::SimdAlu               0      0.00%     82.09% # Class of committed instruction
system.cpu.commit.op_class_0::SimdCmp               0      0.00%     82.09% # Class of committed instruction
system.cpu.commit.op_class_0::SimdCvt               0      0.00%     82.09% # Class of committed instruction
system.cpu.commit.op_class_0::SimdMisc              0      0.00%     82.09% # Class of committed instruction
system.cpu.commit.op_class_0::SimdMult              0      0.00%     82.09% # Class of committed instruction
system.cpu.commit.op_class_0::SimdMultAcc            0      0.00%     82.09% # Class of committed instruction
system.cpu.commit.op_class_0::SimdShift             0      0.00%     82.09% # Class of committed instruction
system.cpu.commit.op_class_0::SimdShiftAcc            0      0.00%     82.09% # Class of committed instruction
system.cpu.commit.op_class_0::SimdSqrt              0      0.00%     82.09% # Class of committed instruction
system.cpu.commit.op_class_0::SimdFloatAdd            0      0.00%     82.09% # Class of committed instruction
system.cpu.commit.op_class_0::SimdFloatAlu            0      0.00%     82.09% # Class of committed instruction
system.cpu.commit.op_class_0::SimdFloatCmp            0      0.00%     82.09% # Class of committed instruction
system.cpu.commit.op_class_0::SimdFloatCvt            0      0.00%     82.09% # Class of committed instruction
system.cpu.commit.op_class_0::SimdFloatDiv            0      0.00%     82.09% # Class of committed instruction
system.cpu.commit.op_class_0::SimdFloatMisc       154681      0.04%     82.13% # Class of committed instruction
[...]
system.l2.demand_miss_rate::cpu.data         0.078855                       # miss rate for demand accesses
system.l2.demand_miss_rate::total            0.138368                       # miss rate for demand accesses
system.l2.overall_miss_rate::cpu.inst        0.223205                       # miss rate for overall accesses
system.l2.overall_miss_rate::cpu.data        0.078855                       # miss rate for overall accesses
system.l2.overall_miss_rate::total           0.138368                       # miss rate for overall accesses
system.l2.ReadExReq_avg_miss_latency::cpu.data 111963.414634                       # average ReadExReq miss latency
system.l2.ReadExReq_avg_miss_latency::total 111963.414634                       # average ReadExReq miss latency
system.l2.ReadCleanReq_avg_miss_latency::cpu.inst 125068.018018                       # average ReadCleanReq miss latency
system.l2.ReadCleanReq_avg_miss_latency::total 125068.018018                       # average ReadCleanReq miss latency
system.l2.ReadSharedReq_avg_miss_latency::cpu.data 155313.073394                       # average ReadSharedReq miss latency
system.l2.ReadSharedReq_avg_miss_latency::total 155313.073394                       # average ReadSharedReq miss latency
system.l2.demand_avg_miss_latency::cpu.inst 125068.018018                       # average overall miss latency
system.l2.demand_avg_miss_latency::cpu.data 145774.597496                       # average overall miss latency
system.l2.demand_avg_miss_latency::total 132003.295386                       # average overall miss latency
system.l2.overall_avg_miss_latency::cpu.inst 125068.018018                       # average overall miss latency
system.l2.overall_avg_miss_latency::cpu.data 145774.597496                       # average overall miss latency
system.l2.overall_avg_miss_latency::total 132003.295386                       # average overall miss latency
system.l2.blocked_cycles::no_mshrs                  0                       # number of cycles access was blocked
system.l2.blocked_cycles::no_targets                0                       # number of cycles access was blocked
system.l2.blocked::no_mshrs                         0                       # number of cycles access was blocked
system.l2.blocked::no_targets                       0                       # number of cycles access was blocked
system.l2.avg_blocked_cycles::no_mshrs            nan                       # average number of cycles each access was blocked
system.l2.avg_blocked_cycles::no_targets          nan                       # average number of cycles each access was blocked
system.l2.ReadExReq_mshr_hits::cpu.data            28                       # number of ReadExReq MSHR hits
system.l2.ReadExReq_mshr_hits::total               28                       # number of ReadExReq MSHR hits
system.l2.ReadCleanReq_mshr_hits::cpu.inst            1                       # number of ReadCleanReq MSHR hits
system.l2.ReadCleanReq_mshr_hits::total             1                       # number of ReadCleanReq MSHR hits
system.l2.ReadSharedReq_mshr_hits::cpu.data            8                       # number of ReadSharedReq MSHR hits
system.l2.ReadSharedReq_mshr_hits::total            8                       # number of ReadSharedReq MSHR hits
system.l2.demand_mshr_hits::cpu.inst                1                       # number of demand (read+write) MSHR hits
system.l2.demand_mshr_hits::cpu.data               36                       # number of demand (read+write) MSHR hits
system.l2.demand_mshr_hits::total                  37                       # number of demand (read+write) MSHR hits
system.l2.overall_mshr_hits::cpu.inst               1                       # number of overall MSHR hits
system.l2.overall_mshr_hits::cpu.data              36                       # number of overall MSHR hits
system.l2.overall_mshr_hits::total                 37                       # number of overall MSHR hits
system.l2.HardPFReq_mshr_misses::l2.prefetcher         3599                       # number of HardPFReq MSHR misses
system.l2.HardPFReq_mshr_misses::total           3599                       # number of HardPFReq MSHR misses
system.l2.ReadExReq_mshr_misses::cpu.data           95                       # number of ReadExReq MSHR misses
system.l2.ReadExReq_mshr_misses::total             95                       # number of ReadExReq MSHR misses
system.l2.ReadCleanReq_mshr_misses::cpu.inst         1109                       # number of ReadCleanReq MSHR misses
system.l2.ReadCleanReq_mshr_misses::total         1109                       # number of ReadCleanReq MSHR misses
system.l2.ReadSharedReq_mshr_misses::cpu.data          428                       # number of ReadSharedReq MSHR misses
system.l2.ReadSharedReq_mshr_misses::total          428                       # number of ReadSharedReq MSHR misses
system.l2.demand_mshr_misses::cpu.inst           1109                       # number of demand (read+write) MSHR misses
system.l2.demand_mshr_misses::cpu.data            523                       # number of demand (read+write) MSHR misses
system.l2.demand_mshr_misses::total              1632                       # number of demand (read+write) MSHR misses
system.l2.overall_mshr_misses::cpu.inst          1109                       # number of overall MSHR misses
system.l2.overall_mshr_misses::cpu.data           523                       # number of overall MSHR misses
system.l2.overall_mshr_misses::l2.prefetcher         3599                       # number of overall MSHR misses
system.l2.overall_mshr_misses::total             5231                       # number of overall MSHR misses
system.l2.HardPFReq_mshr_miss_latency::l2.prefetcher     92609428                       # number of HardPFReq MSHR miss cycles
system.l2.HardPFReq_mshr_miss_latency::total     92609428                       # number of HardPFReq MSHR miss cycles
system.l2.ReadExReq_mshr_miss_latency::cpu.data     12221000                       # number of ReadExReq MSHR miss cycles
system.l2.ReadExReq_mshr_miss_latency::total     12221000                       # number of ReadExReq MSHR miss cycles
system.l2.ReadCleanReq_mshr_miss_latency::cpu.inst    132112000                       # number of ReadCleanReq MSHR miss cycles
system.l2.ReadCleanReq_mshr_miss_latency::total    132112000                       # number of ReadCleanReq MSHR miss cycles
system.l2.ReadSharedReq_mshr_miss_latency::cpu.data     64649000                       # number of ReadSharedReq MSHR miss cycles
system.l2.ReadSharedReq_mshr_miss_latency::total     64649000                       # number of ReadSharedReq MSHR miss cycles
system.l2.demand_mshr_miss_latency::cpu.inst    132112000                       # number of demand (read+write) MSHR miss cycles
system.l2.demand_mshr_miss_latency::cpu.data     76870000                       # number of demand (read+write) MSHR miss cycles
system.l2.demand_mshr_miss_latency::total    208982000                       # number of demand (read+write) MSHR miss cycles
system.l2.overall_mshr_miss_latency::cpu.inst    132112000                       # number of overall MSHR miss cycles
system.l2.overall_mshr_miss_latency::cpu.data     76870000                       # number of overall MSHR miss cycles
system.l2.overall_mshr_miss_latency::l2.prefetcher     92609428                       # number of overall MSHR miss cycles
system.l2.overall_mshr_miss_latency::total    301591428                       # number of overall MSHR miss cycles
system.l2.HardPFReq_mshr_miss_rate::l2.prefetcher          inf                       # mshr miss rate for HardPFReq accesses
system.l2.HardPFReq_mshr_miss_rate::total          inf                       # mshr miss rate for HardPFReq accesses
system.l2.ReadExReq_mshr_miss_rate::cpu.data     0.025306                       # mshr miss rate for ReadExReq accesses
system.l2.ReadExReq_mshr_miss_rate::total     0.025306                       # mshr miss rate for ReadExReq accesses
system.l2.ReadCleanReq_mshr_miss_rate::cpu.inst     0.223004                       # mshr miss rate for ReadCleanReq accesses
system.l2.ReadCleanReq_mshr_miss_rate::total     0.223004                       # mshr miss rate for ReadCleanReq accesses
system.l2.ReadSharedReq_mshr_miss_rate::cpu.data     0.128336                       # mshr miss rate for ReadSharedReq accesses
system.l2.ReadSharedReq_mshr_miss_rate::total     0.128336                       # mshr miss rate for ReadSharedReq accesses
system.l2.demand_mshr_miss_rate::cpu.inst     0.223004                       # mshr miss rate for demand accesses
system.l2.demand_mshr_miss_rate::cpu.data     0.073776                       # mshr miss rate for demand accesses
system.l2.demand_mshr_miss_rate::total       0.135301                       # mshr miss rate for demand accesses
system.l2.overall_mshr_miss_rate::cpu.inst     0.223004                       # mshr miss rate for overall accesses
system.l2.overall_mshr_miss_rate::cpu.data     0.073776                       # mshr miss rate for overall accesses
system.l2.overall_mshr_miss_rate::l2.prefetcher          inf                       # mshr miss rate for overall accesses
system.l2.overall_mshr_miss_rate::total      0.433676                       # mshr miss rate for overall accesses
system.l2.HardPFReq_avg_mshr_miss_latency::l2.prefetcher 25731.988886                       # average HardPFReq mshr miss latency
system.l2.HardPFReq_avg_mshr_miss_latency::total 25731.988886                       # average HardPFReq mshr miss latency
system.l2.ReadExReq_avg_mshr_miss_latency::cpu.data 128642.105263                       # average ReadExReq mshr miss latency
system.l2.ReadExReq_avg_mshr_miss_latency::total 128642.105263                       # average ReadExReq mshr miss latency
system.l2.ReadCleanReq_avg_mshr_miss_latency::cpu.inst 119127.141569                       # average ReadCleanReq mshr miss latency
system.l2.ReadCleanReq_avg_mshr_miss_latency::total 119127.141569                       # average ReadCleanReq mshr miss latency
system.l2.ReadSharedReq_avg_mshr_miss_latency::cpu.data 151049.065421                       # average ReadSharedReq mshr miss latency
system.l2.ReadSharedReq_avg_mshr_miss_latency::total 151049.065421                       # average ReadSharedReq mshr miss latency
system.l2.demand_avg_mshr_miss_latency::cpu.inst 119127.141569                       # average overall mshr miss latency
system.l2.demand_avg_mshr_miss_latency::cpu.data 146978.967495                       # average overall mshr miss latency
system.l2.demand_avg_mshr_miss_latency::total 128052.696078                       # average overall mshr miss latency
system.l2.overall_avg_mshr_miss_latency::cpu.inst 119127.141569                       # average overall mshr miss latency
system.l2.overall_avg_mshr_miss_latency::cpu.data 146978.967495                       # average overall mshr miss latency
system.l2.overall_avg_mshr_miss_latency::l2.prefetcher 25731.988886                       # average overall mshr miss latency
system.l2.overall_avg_mshr_miss_latency::total 57654.641178                       # average overall mshr miss latency
system.membus.snoop_filter.tot_requests          3148                       # Total number of requests made to the snoop filter.
system.membus.snoop_filter.hit_single_requests          370                       # Number of requests hitting in the snoop filter with a single holder of the requested data.
system.membus.snoop_filter.hit_multi_requests            0                       # Number of requests hitting in the snoop filter with multiple (>1) holders of the requested data.
system.membus.snoop_filter.tot_snoops               0                       # Total number of snoops made to the snoop filter.
system.membus.snoop_filter.hit_single_snoops            0                       # Number of snoops hitting in the snoop filter with a single holder of the requested data.
system.membus.snoop_filter.hit_multi_snoops            0                       # Number of snoops hitting in the snoop filter with multiple (>1) holders of the requested data.
system.membus.pwrStateResidencyTicks::UNDEFINED 100974747500                       # Cumulative time (in ticks) in various power states
system.membus.trans_dist::ReadResp               3053                       # Transaction distribution
system.membus.trans_dist::ReadExReq                95                       # Transaction distribution
system.membus.trans_dist::ReadExResp               95                       # Transaction distribution
system.membus.trans_dist::ReadCleanReq           3053                       # Transaction distribution
system.membus.pkt_count_system.l2.mem_side::system.mem_ctrls.port         6296                       # Packet count per connected master and slave (bytes)
system.membus.pkt_count::total                   6296                       # Packet count per connected master and slave (bytes)
system.membus.pkt_size_system.l2.mem_side::system.mem_ctrls.port       201472                       # Cumulative packet size per connected master and slave (bytes)
system.membus.pkt_size::total                  201472                       # Cumulative packet size per connected master and slave (bytes)
system.membus.snoops                                0                       # Total snoops (count)
system.membus.snoopTraffic                          0                       # Total snoop traffic (bytes)
system.membus.snoop_fanout::samples              3148                       # Request fanout histogram
system.membus.snoop_fanout::mean                    0                       # Request fanout histogram
system.membus.snoop_fanout::stdev                   0                       # Request fanout histogram
system.membus.snoop_fanout::underflows              0      0.00%      0.00% # Request fanout histogram
system.membus.snoop_fanout::0                    3148    100.00%    100.00% # Request fanout histogram
system.membus.snoop_fanout::1                       0      0.00%    100.00% # Request fanout histogram
system.membus.snoop_fanout::overflows               0      0.00%    100.00% # Request fanout histogram
system.membus.snoop_fanout::min_value               0                       # Request fanout histogram
system.membus.snoop_fanout::max_value               0                       # Request fanout histogram
system.membus.snoop_fanout::total                3148                       # Request fanout histogram
system.membus.reqLayer0.occupancy             4716197                       # Layer occupancy (ticks)
system.membus.reqLayer0.utilization               0.0                       # Layer utilization (%)
system.membus.respLayer1.occupancy           16529497                       # Layer occupancy (ticks)
system.membus.respLayer1.utilization              0.0                       # Layer utilization (%)
system.tol2bus.snoop_filter.tot_requests        22843                       # Total number of requests made to the snoop filter.
system.tol2bus.snoop_filter.hit_single_requests        10793                       # Number of requests hitting in the snoop filter with a single holder of the requested data.
system.tol2bus.snoop_filter.hit_multi_requests          367                       # Number of requests hitting in the snoop filter with multiple (>1) holders of the requested data.
system.tol2bus.snoop_filter.tot_snoops           2082                       # Total number of snoops made to the snoop filter.
system.tol2bus.snoop_filter.hit_single_snoops         2082                       # Number of snoops hitting in the snoop filter with a single holder of the requested data.
system.tol2bus.snoop_filter.hit_multi_snoops            0                       # Number of snoops hitting in the snoop filter with multiple (>1) holders of the requested data.
system.tol2bus.pwrStateResidencyTicks::UNDEFINED 100974747500                       # Cumulative time (in ticks) in various power states
system.tol2bus.trans_dist::ReadResp              8307                       # Transaction distribution
system.tol2bus.trans_dist::WritebackDirty         5054                       # Transaction distribution
system.tol2bus.trans_dist::WritebackClean         5727                       # Transaction distribution
system.tol2bus.trans_dist::HardPFReq             3823                       # Transaction distribution
system.tol2bus.trans_dist::ReadExReq             3754                       # Transaction distribution
system.tol2bus.trans_dist::ReadExResp            3754                       # Transaction distribution
system.tol2bus.trans_dist::ReadCleanReq          4973                       # Transaction distribution
system.tol2bus.trans_dist::ReadSharedReq         3335                       # Transaction distribution
system.tol2bus.pkt_count_system.cpu.icache.mem_side::system.l2.cpu_side        14661                       # Packet count per connected master and slave (bytes)
system.tol2bus.pkt_count_system.cpu.dcache.mem_side::system.l2.cpu_side        20243                       # Packet count per connected master and slave (bytes)
system.tol2bus.pkt_count::total                 34904                       # Packet count per connected master and slave (bytes)
system.tol2bus.pkt_size_system.cpu.icache.mem_side::system.l2.cpu_side       620032                       # Cumulative packet size per connected master and slave (bytes)
system.tol2bus.pkt_size_system.cpu.dcache.mem_side::system.l2.cpu_side       841856                       # Cumulative packet size per connected master and slave (bytes)
system.tol2bus.pkt_size::total                1461888                       # Cumulative packet size per connected master and slave (bytes)
system.tol2bus.snoops                            3823                       # Total snoops (count)
system.tol2bus.snoopTraffic                         0                       # Total snoop traffic (bytes)
system.tol2bus.snoop_fanout::samples            15885                       # Request fanout histogram
system.tol2bus.snoop_fanout::mean            0.154926                       # Request fanout histogram
system.tol2bus.snoop_fanout::stdev           0.361846                       # Request fanout histogram
system.tol2bus.snoop_fanout::underflows             0      0.00%      0.00% # Request fanout histogram
system.tol2bus.snoop_fanout::0                  13424     84.51%     84.51% # Request fanout histogram
system.tol2bus.snoop_fanout::1                   2461     15.49%    100.00% # Request fanout histogram
system.tol2bus.snoop_fanout::2                      0      0.00%    100.00% # Request fanout histogram
system.tol2bus.snoop_fanout::3                      0      0.00%    100.00% # Request fanout histogram
system.tol2bus.snoop_fanout::4                      0      0.00%    100.00% # Request fanout histogram
system.tol2bus.snoop_fanout::overflows              0      0.00%    100.00% # Request fanout histogram
system.tol2bus.snoop_fanout::min_value              0                       # Request fanout histogram
system.tol2bus.snoop_fanout::max_value              1                       # Request fanout histogram
system.tol2bus.snoop_fanout::total              15885                       # Request fanout histogram
system.tol2bus.reqLayer0.occupancy           22202500                       # Layer occupancy (ticks)
system.tol2bus.reqLayer0.utilization              0.0                       # Layer utilization (%)
system.tol2bus.respLayer0.occupancy           7458499                       # Layer occupancy (ticks)
system.tol2bus.respLayer0.utilization             0.0                       # Layer utilization (%)
system.tol2bus.respLayer1.occupancy          10637492                       # Layer occupancy (ticks)
system.tol2bus.respLayer1.utilization             0.0                       # Layer utilization (%)

---------- End Simulation Statistics   ----------
