
---------- Begin Simulation Statistics ----------
sim_seconds                                  1.674457                       # Number of seconds simulated
sim_ticks                                1674457101500                       # Number of ticks simulated
final_tick                               6474629109500                       # Number of ticks from beginning of simulation (restored from checkpoints and never reset)
sim_freq                                 1000000000000                       # Frequency of simulated ticks
host_inst_rate                                1336386                       # Simulator instruction rate (inst/s)
host_op_rate                                  3040077                       # Simulator op (including micro ops) rate (op/s)
host_tick_rate                             1484319657                       # Simulator tick rate (ticks/s)
host_mem_usage                                2328396                       # Number of bytes of host memory used
host_seconds                                  1128.10                       # Real time elapsed on the host
sim_insts                                  1507574023                       # Number of instructions simulated
sim_ops                                    3429502574                       # Number of ops (including micro ops) simulated
system.voltage_domain.voltage                       1                       # Voltage in Volts
system.clk_domain.clock                          1000                       # Clock period in ticks
system.mem_ctrls.pwrStateResidencyTicks::UNDEFINED 6474629109500                       # Cumulative time (in ticks) in various power states
system.mem_ctrls.bytes_read::l2.prefetcher       897216                       # Number of bytes read from this memory
system.mem_ctrls.bytes_read::switch_cpus0.inst           64                       # Number of bytes read from this memory
system.mem_ctrls.bytes_read::switch_cpus0.data          128                       # Number of bytes read from this memory
system.mem_ctrls.bytes_read::switch_cpus_10.inst         5056                       # Number of bytes read from this memory
system.mem_ctrls.bytes_read::switch_cpus_10.data        19328                       # Number of bytes read from this memory
system.mem_ctrls.bytes_read::switch_cpus_11.inst         2880                       # Number of bytes read from this memory
system.mem_ctrls.bytes_read::switch_cpus_11.data        19648                       # Number of bytes read from this memory
system.mem_ctrls.bytes_read::switch_cpus_12.inst          192                       # Number of bytes read from this memory
system.mem_ctrls.bytes_read::switch_cpus_12.data        13056                       # Number of bytes read from this memory
system.mem_ctrls.bytes_read::switch_cpus_13.dtb.walker           64                       # Number of bytes read from this memory
system.mem_ctrls.bytes_read::switch_cpus_13.inst          512                       # Number of bytes read from this memory
system.mem_ctrls.bytes_read::switch_cpus_13.data        11392                       # Number of bytes read from this memory
system.mem_ctrls.bytes_read::switch_cpus_14.inst         1216                       # Number of bytes read from this memory
system.mem_ctrls.bytes_read::switch_cpus_14.data        10944                       # Number of bytes read from this memory
system.mem_ctrls.bytes_read::switch_cpus_15.inst           64                       # Number of bytes read from this memory
system.mem_ctrls.bytes_read::switch_cpus_15.data        12288                       # Number of bytes read from this memory
system.mem_ctrls.bytes_read::switch_cpus_16.inst          640                       # Number of bytes read from this memory
system.mem_ctrls.bytes_read::switch_cpus_16.data         1600                       # Number of bytes read from this memory
system.mem_ctrls.bytes_read::switch_cpus_17.inst          512                       # Number of bytes read from this memory
system.mem_ctrls.bytes_read::switch_cpus_17.data        20992                       # Number of bytes read from this memory
system.mem_ctrls.bytes_read::total            1017792                       # Number of bytes read from this memory
system.mem_ctrls.bytes_inst_read::switch_cpus0.inst           64                       # Number of instructions bytes read from this memory
system.mem_ctrls.bytes_inst_read::switch_cpus_10.inst         5056                       # Number of instructions bytes read from this memory
system.mem_ctrls.bytes_inst_read::switch_cpus_11.inst         2880                       # Number of instructions bytes read from this memory
system.mem_ctrls.bytes_inst_read::switch_cpus_12.inst          192                       # Number of instructions bytes read from this memory
system.mem_ctrls.bytes_inst_read::switch_cpus_13.inst          512                       # Number of instructions bytes read from this memory
system.mem_ctrls.bytes_inst_read::switch_cpus_14.inst         1216                       # Number of instructions bytes read from this memory
system.mem_ctrls.bytes_inst_read::switch_cpus_15.inst           64                       # Number of instructions bytes read from this memory
system.mem_ctrls.bytes_inst_read::switch_cpus_16.inst          640                       # Number of instructions bytes read from this memory
system.mem_ctrls.bytes_inst_read::switch_cpus_17.inst          512                       # Number of instructions bytes read from this memory
system.mem_ctrls.bytes_inst_read::total         11136                       # Number of instructions bytes read from this memory
system.mem_ctrls.bytes_written::writebacks      1813440                       # Number of bytes written to this memory
system.mem_ctrls.bytes_written::total         1813440                       # Number of bytes written to this memory
system.mem_ctrls.num_reads::l2.prefetcher        14019                       # Number of read requests responded to by this memory
system.mem_ctrls.num_reads::switch_cpus0.inst            1                       # Number of read requests responded to by this memory
system.mem_ctrls.num_reads::switch_cpus0.data            2                       # Number of read requests responded to by this memory
system.mem_ctrls.num_reads::switch_cpus_10.inst           79                       # Number of read requests responded to by this memory
system.mem_ctrls.num_reads::switch_cpus_10.data          302                       # Number of read requests responded to by this memory
system.mem_ctrls.num_reads::switch_cpus_11.inst           45                       # Number of read requests responded to by this memory
system.mem_ctrls.num_reads::switch_cpus_11.data          307                       # Number of read requests responded to by this memory
system.mem_ctrls.num_reads::switch_cpus_12.inst            3                       # Number of read requests responded to by this memory
system.mem_ctrls.num_reads::switch_cpus_12.data          204                       # Number of read requests responded to by this memory
system.mem_ctrls.num_reads::switch_cpus_13.dtb.walker            1                       # Number of read requests responded to by this memory
system.mem_ctrls.num_reads::switch_cpus_13.inst            8                       # Number of read requests responded to by this memory
system.mem_ctrls.num_reads::switch_cpus_13.data          178                       # Number of read requests responded to by this memory
system.mem_ctrls.num_reads::switch_cpus_14.inst           19                       # Number of read requests responded to by this memory
system.mem_ctrls.num_reads::switch_cpus_14.data          171                       # Number of read requests responded to by this memory
system.mem_ctrls.num_reads::switch_cpus_15.inst            1                       # Number of read requests responded to by this memory
system.mem_ctrls.num_reads::switch_cpus_15.data          192                       # Number of read requests responded to by this memory
system.mem_ctrls.num_reads::switch_cpus_16.inst           10                       # Number of read requests responded to by this memory
system.mem_ctrls.num_reads::switch_cpus_16.data           25                       # Number of read requests responded to by this memory
system.mem_ctrls.num_reads::switch_cpus_17.inst            8                       # Number of read requests responded to by this memory
system.mem_ctrls.num_reads::switch_cpus_17.data          328                       # Number of read requests responded to by this memory
system.mem_ctrls.num_reads::total               15903                       # Number of read requests responded to by this memory
system.mem_ctrls.num_writes::writebacks         28335                       # Number of write requests responded to by this memory
system.mem_ctrls.num_writes::total              28335                       # Number of write requests responded to by this memory
system.mem_ctrls.bw_read::l2.prefetcher        535825                       # Total read bandwidth from this memory (bytes/s)
system.mem_ctrls.bw_read::switch_cpus0.inst           38                       # Total read bandwidth from this memory (bytes/s)
system.mem_ctrls.bw_read::switch_cpus0.data           76                       # Total read bandwidth from this memory (bytes/s)
system.mem_ctrls.bw_read::switch_cpus_10.inst         3019                       # Total read bandwidth from this memory (bytes/s)
system.mem_ctrls.bw_read::switch_cpus_10.data        11543                       # Total read bandwidth from this memory (bytes/s)
system.mem_ctrls.bw_read::switch_cpus_11.inst         1720                       # Total read bandwidth from this memory (bytes/s)
system.mem_ctrls.bw_read::switch_cpus_11.data        11734                       # Total read bandwidth from this memory (bytes/s)
system.mem_ctrls.bw_read::switch_cpus_12.inst          115                       # Total read bandwidth from this memory (bytes/s)
system.mem_ctrls.bw_read::switch_cpus_12.data         7797                       # Total read bandwidth from this memory (bytes/s)
system.mem_ctrls.bw_read::switch_cpus_13.dtb.walker           38                       # Total read bandwidth from this memory (bytes/s)
system.mem_ctrls.bw_read::switch_cpus_13.inst          306                       # Total read bandwidth from this memory (bytes/s)
system.mem_ctrls.bw_read::switch_cpus_13.data         6803                       # Total read bandwidth from this memory (bytes/s)
system.mem_ctrls.bw_read::switch_cpus_14.inst          726                       # Total read bandwidth from this memory (bytes/s)
system.mem_ctrls.bw_read::switch_cpus_14.data         6536                       # Total read bandwidth from this memory (bytes/s)
system.mem_ctrls.bw_read::switch_cpus_15.inst           38                       # Total read bandwidth from this memory (bytes/s)
system.mem_ctrls.bw_read::switch_cpus_15.data         7338                       # Total read bandwidth from this memory (bytes/s)
system.mem_ctrls.bw_read::switch_cpus_16.inst          382                       # Total read bandwidth from this memory (bytes/s)
system.mem_ctrls.bw_read::switch_cpus_16.data          956                       # Total read bandwidth from this memory (bytes/s)
system.mem_ctrls.bw_read::switch_cpus_17.inst          306                       # Total read bandwidth from this memory (bytes/s)
system.mem_ctrls.bw_read::switch_cpus_17.data        12537                       # Total read bandwidth from this memory (bytes/s)
system.mem_ctrls.bw_read::total                607834                       # Total read bandwidth from this memory (bytes/s)
system.mem_ctrls.bw_inst_read::switch_cpus0.inst           38                       # Instruction read bandwidth from this memory (bytes/s)
system.mem_ctrls.bw_inst_read::switch_cpus_10.inst         3019                       # Instruction read bandwidth from this memory (bytes/s)
system.mem_ctrls.bw_inst_read::switch_cpus_11.inst         1720                       # Instruction read bandwidth from this memory (bytes/s)
system.mem_ctrls.bw_inst_read::switch_cpus_12.inst          115                       # Instruction read bandwidth from this memory (bytes/s)
system.mem_ctrls.bw_inst_read::switch_cpus_13.inst          306                       # Instruction read bandwidth from this memory (bytes/s)
system.mem_ctrls.bw_inst_read::switch_cpus_14.inst          726                       # Instruction read bandwidth from this memory (bytes/s)
system.mem_ctrls.bw_inst_read::switch_cpus_15.inst           38                       # Instruction read bandwidth from this memory (bytes/s)
system.mem_ctrls.bw_inst_read::switch_cpus_16.inst          382                       # Instruction read bandwidth from this memory (bytes/s)
system.mem_ctrls.bw_inst_read::switch_cpus_17.inst          306                       # Instruction read bandwidth from this memory (bytes/s)
system.mem_ctrls.bw_inst_read::total             6651                       # Instruction read bandwidth from this memory (bytes/s)
system.mem_ctrls.bw_write::writebacks         1083002                       # Write bandwidth from this memory (bytes/s)
system.mem_ctrls.bw_write::total              1083002                       # Write bandwidth from this memory (bytes/s)
system.mem_ctrls.bw_total::writebacks         1083002                       # Total bandwidth to/from this memory (bytes/s)
system.mem_ctrls.bw_total::l2.prefetcher       535825                       # Total bandwidth to/from this memory (bytes/s)
system.mem_ctrls.bw_total::switch_cpus0.inst           38                       # Total bandwidth to/from this memory (bytes/s)
system.mem_ctrls.bw_total::switch_cpus0.data           76                       # Total bandwidth to/from this memory (bytes/s)
system.mem_ctrls.bw_total::switch_cpus_10.inst         3019                       # Total bandwidth to/from this memory (bytes/s)
system.mem_ctrls.bw_total::switch_cpus_10.data        11543                       # Total bandwidth to/from this memory (bytes/s)
system.mem_ctrls.bw_total::switch_cpus_11.inst         1720                       # Total bandwidth to/from this memory (bytes/s)
system.mem_ctrls.bw_total::switch_cpus_11.data        11734                       # Total bandwidth to/from this memory (bytes/s)
system.mem_ctrls.bw_total::switch_cpus_12.inst          115                       # Total bandwidth to/from this memory (bytes/s)
system.mem_ctrls.bw_total::switch_cpus_12.data         7797                       # Total bandwidth to/from this memory (bytes/s)
system.mem_ctrls.bw_total::switch_cpus_13.dtb.walker           38                       # Total bandwidth to/from this memory (bytes/s)
system.mem_ctrls.bw_total::switch_cpus_13.inst          306                       # Total bandwidth to/from this memory (bytes/s)
system.mem_ctrls.bw_total::switch_cpus_13.data         6803                       # Total bandwidth to/from this memory (bytes/s)
system.mem_ctrls.bw_total::switch_cpus_14.inst          726                       # Total bandwidth to/from this memory (bytes/s)
system.mem_ctrls.bw_total::switch_cpus_14.data         6536                       # Total bandwidth to/from this memory (bytes/s)
system.mem_ctrls.bw_total::switch_cpus_15.inst           38                       # Total bandwidth to/from this memory (bytes/s)
system.mem_ctrls.bw_total::switch_cpus_15.data         7338                       # Total bandwidth to/from this memory (bytes/s)
system.mem_ctrls.bw_total::switch_cpus_16.inst          382                       # Total bandwidth to/from this memory (bytes/s)
system.mem_ctrls.bw_total::switch_cpus_16.data          956                       # Total bandwidth to/from this memory (bytes/s)
system.mem_ctrls.bw_total::switch_cpus_17.inst          306                       # Total bandwidth to/from this memory (bytes/s)
system.mem_ctrls.bw_total::switch_cpus_17.data        12537                       # Total bandwidth to/from this memory (bytes/s)
system.mem_ctrls.bw_total::total              1690836                       # Total bandwidth to/from this memory (bytes/s)
system.mem_ctrls.readReqs                       15900                       # Number of read requests accepted
system.mem_ctrls.writeReqs                      28333                       # Number of write requests accepted
system.mem_ctrls.readBursts                     15900                       # Number of DRAM read bursts, including those serviced by the write queue
system.mem_ctrls.writeBursts                    28333                       # Number of DRAM write bursts, including those merged in the write queue
system.mem_ctrls.bytesReadDRAM                1015040                       # Total number of bytes read from DRAM
system.mem_ctrls.bytesReadWrQ                    2560                       # Total number of bytes read from write queue
system.mem_ctrls.bytesWritten                 1811968                       # Total number of bytes written to DRAM
system.mem_ctrls.bytesReadSys                 1017600                       # Total read bytes from the system interface side
system.mem_ctrls.bytesWrittenSys              1813312                       # Total written bytes from the system interface side
system.mem_ctrls.servicedByWrQ                     40                       # Number of DRAM read bursts serviced by the write queue
system.mem_ctrls.mergedWrBursts                     0                       # Number of DRAM write bursts merged with an existing one
system.mem_ctrls.neitherReadNorWriteReqs            0                       # Number of requests that are neither read nor write
system.mem_ctrls.perBankRdBursts::0              1098                       # Per bank write bursts
system.mem_ctrls.perBankRdBursts::1               721                       # Per bank write bursts
system.mem_ctrls.perBankRdBursts::2               808                       # Per bank write bursts
system.mem_ctrls.perBankRdBursts::3               769                       # Per bank write bursts
system.mem_ctrls.perBankRdBursts::4              1339                       # Per bank write bursts
system.mem_ctrls.perBankRdBursts::5              1074                       # Per bank write bursts
system.mem_ctrls.perBankRdBursts::6               878                       # Per bank write bursts
system.mem_ctrls.perBankRdBursts::7               942                       # Per bank write bursts
system.mem_ctrls.perBankRdBursts::8              1166                       # Per bank write bursts
system.mem_ctrls.perBankRdBursts::9              1100                       # Per bank write bursts
system.mem_ctrls.perBankRdBursts::10              844                       # Per bank write bursts
system.mem_ctrls.perBankRdBursts::11              676                       # Per bank write bursts
system.mem_ctrls.perBankRdBursts::12             1476                       # Per bank write bursts
system.mem_ctrls.perBankRdBursts::13             1119                       # Per bank write bursts
system.mem_ctrls.perBankRdBursts::14             1067                       # Per bank write bursts
system.mem_ctrls.perBankRdBursts::15              783                       # Per bank write bursts
system.mem_ctrls.perBankWrBursts::0              1554                       # Per bank write bursts
system.mem_ctrls.perBankWrBursts::1              1290                       # Per bank write bursts
system.mem_ctrls.perBankWrBursts::2              1207                       # Per bank write bursts
system.mem_ctrls.perBankWrBursts::3              1345                       # Per bank write bursts
system.mem_ctrls.perBankWrBursts::4              1856                       # Per bank write bursts
system.mem_ctrls.perBankWrBursts::5              1780                       # Per bank write bursts
system.mem_ctrls.perBankWrBursts::6              1706                       # Per bank write bursts
system.mem_ctrls.perBankWrBursts::7              1740                       # Per bank write bursts
system.mem_ctrls.perBankWrBursts::8              1879                       # Per bank write bursts
system.mem_ctrls.perBankWrBursts::9              2205                       # Per bank write bursts
system.mem_ctrls.perBankWrBursts::10             2036                       # Per bank write bursts
system.mem_ctrls.perBankWrBursts::11             2042                       # Per bank write bursts
system.mem_ctrls.perBankWrBursts::12             2190                       # Per bank write bursts
system.mem_ctrls.perBankWrBursts::13             1966                       # Per bank write bursts
system.mem_ctrls.perBankWrBursts::14             2000                       # Per bank write bursts
system.mem_ctrls.perBankWrBursts::15             1516                       # Per bank write bursts
system.mem_ctrls.numRdRetry                         0                       # Number of times read queue was full causing retry
system.mem_ctrls.numWrRetry                        17                       # Number of times write queue was full causing retry
system.mem_ctrls.totGap                  1546449613498                       # Total gap between requests
system.mem_ctrls.readPktSize::0                     0                       # Read request sizes (log2)
system.mem_ctrls.readPktSize::1                     0                       # Read request sizes (log2)
system.mem_ctrls.readPktSize::2                     0                       # Read request sizes (log2)
system.mem_ctrls.readPktSize::3                     0                       # Read request sizes (log2)
system.mem_ctrls.readPktSize::4                     0                       # Read request sizes (log2)
system.mem_ctrls.readPktSize::5                     0                       # Read request sizes (log2)
system.mem_ctrls.readPktSize::6                 15900                       # Read request sizes (log2)
system.mem_ctrls.writePktSize::0                    0                       # Write request sizes (log2)
system.mem_ctrls.writePktSize::1                    0                       # Write request sizes (log2)
system.mem_ctrls.writePktSize::2                    0                       # Write request sizes (log2)
system.mem_ctrls.writePktSize::3                    0                       # Write request sizes (log2)
system.mem_ctrls.writePktSize::4                    0                       # Write request sizes (log2)
system.mem_ctrls.writePktSize::5                    0                       # Write request sizes (log2)
system.mem_ctrls.writePktSize::6                28333                       # Write request sizes (log2)
system.mem_ctrls.rdQLenPdf::0                    5204                       # What read queue length does an incoming req see
system.mem_ctrls.rdQLenPdf::1                    3120                       # What read queue length does an incoming req see
system.mem_ctrls.rdQLenPdf::2                    2480                       # What read queue length does an incoming req see
system.mem_ctrls.rdQLenPdf::3                    2085                       # What read queue length does an incoming req see
system.mem_ctrls.rdQLenPdf::4                    1651                       # What read queue length does an incoming req see
system.mem_ctrls.rdQLenPdf::5                     479                       # What read queue length does an incoming req see
system.mem_ctrls.rdQLenPdf::6                     304                       # What read queue length does an incoming req see
system.mem_ctrls.rdQLenPdf::7                     207                       # What read queue length does an incoming req see
system.mem_ctrls.rdQLenPdf::8                     124                       # What read queue length does an incoming req see
system.mem_ctrls.rdQLenPdf::9                      59                       # What read queue length does an incoming req see
system.mem_ctrls.rdQLenPdf::10                     54                       # What read queue length does an incoming req see
system.mem_ctrls.rdQLenPdf::11                     51                       # What read queue length does an incoming req see
system.mem_ctrls.rdQLenPdf::12                     16                       # What read queue length does an incoming req see
system.mem_ctrls.rdQLenPdf::13                     10                       # What read queue length does an incoming req see
system.mem_ctrls.rdQLenPdf::14                      8                       # What read queue length does an incoming req see
system.mem_ctrls.rdQLenPdf::15                      6                       # What read queue length does an incoming req see
system.mem_ctrls.rdQLenPdf::16                      1                       # What read queue length does an incoming req see
system.mem_ctrls.rdQLenPdf::17                      1                       # What read queue length does an incoming req see
system.mem_ctrls.rdQLenPdf::18                      0                       # What read queue length does an incoming req see
system.mem_ctrls.rdQLenPdf::19                      0                       # What read queue length does an incoming req see
system.mem_ctrls.rdQLenPdf::20                      0                       # What read queue length does an incoming req see
system.mem_ctrls.rdQLenPdf::21                      0                       # What read queue length does an incoming req see
system.mem_ctrls.rdQLenPdf::22                      0                       # What read queue length does an incoming req see
system.mem_ctrls.rdQLenPdf::23                      0                       # What read queue length does an incoming req see
system.mem_ctrls.rdQLenPdf::24                      0                       # What read queue length does an incoming req see
system.mem_ctrls.rdQLenPdf::25                      0                       # What read queue length does an incoming req see
system.mem_ctrls.rdQLenPdf::26                      0                       # What read queue length does an incoming req see
system.mem_ctrls.rdQLenPdf::27                      0                       # What read queue length does an incoming req see
system.mem_ctrls.rdQLenPdf::28                      0                       # What read queue length does an incoming req see
system.mem_ctrls.rdQLenPdf::29                      0                       # What read queue length does an incoming req see
system.mem_ctrls.rdQLenPdf::30                      0                       # What read queue length does an incoming req see
system.mem_ctrls.rdQLenPdf::31                      0                       # What read queue length does an incoming req see
system.mem_ctrls.wrQLenPdf::0                       1                       # What write queue length does an incoming req see
system.mem_ctrls.wrQLenPdf::1                       1                       # What write queue length does an incoming req see
system.mem_ctrls.wrQLenPdf::2                       1                       # What write queue length does an incoming req see
system.mem_ctrls.wrQLenPdf::3                       1                       # What write queue length does an incoming req see
system.mem_ctrls.wrQLenPdf::4                       1                       # What write queue length does an incoming req see
system.mem_ctrls.wrQLenPdf::5                       1                       # What write queue length does an incoming req see
system.mem_ctrls.wrQLenPdf::6                       1                       # What write queue length does an incoming req see
system.mem_ctrls.wrQLenPdf::7                       1                       # What write queue length does an incoming req see
system.mem_ctrls.wrQLenPdf::8                       1                       # What write queue length does an incoming req see
system.mem_ctrls.wrQLenPdf::9                       1                       # What write queue length does an incoming req see
system.mem_ctrls.wrQLenPdf::10                      1                       # What write queue length does an incoming req see
system.mem_ctrls.wrQLenPdf::11                      1                       # What write queue length does an incoming req see
system.mem_ctrls.wrQLenPdf::12                      1                       # What write queue length does an incoming req see
system.mem_ctrls.wrQLenPdf::13                      1                       # What write queue length does an incoming req see
system.mem_ctrls.wrQLenPdf::14                      1                       # What write queue length does an incoming req see
system.mem_ctrls.wrQLenPdf::15                    573                       # What write queue length does an incoming req see
system.mem_ctrls.wrQLenPdf::16                   1073                       # What write queue length does an incoming req see
system.mem_ctrls.wrQLenPdf::17                    911                       # What write queue length does an incoming req see
system.mem_ctrls.wrQLenPdf::18                    990                       # What write queue length does an incoming req see
system.mem_ctrls.wrQLenPdf::19                   1186                       # What write queue length does an incoming req see
system.mem_ctrls.wrQLenPdf::20                   1047                       # What write queue length does an incoming req see
system.mem_ctrls.wrQLenPdf::21                   1280                       # What write queue length does an incoming req see
system.mem_ctrls.wrQLenPdf::22                   1509                       # What write queue length does an incoming req see
system.mem_ctrls.wrQLenPdf::23                   1887                       # What write queue length does an incoming req see
system.mem_ctrls.wrQLenPdf::24                   1807                       # What write queue length does an incoming req see
system.mem_ctrls.wrQLenPdf::25                   2436                       # What write queue length does an incoming req see
system.mem_ctrls.wrQLenPdf::26                   2699                       # What write queue length does an incoming req see
system.mem_ctrls.wrQLenPdf::27                   1771                       # What write queue length does an incoming req see
system.mem_ctrls.wrQLenPdf::28                   1475                       # What write queue length does an incoming req see
system.mem_ctrls.wrQLenPdf::29                   1519                       # What write queue length does an incoming req see
system.mem_ctrls.wrQLenPdf::30                   1543                       # What write queue length does an incoming req see
system.mem_ctrls.wrQLenPdf::31                   1159                       # What write queue length does an incoming req see
system.mem_ctrls.wrQLenPdf::32                   1142                       # What write queue length does an incoming req see
system.mem_ctrls.wrQLenPdf::33                    177                       # What write queue length does an incoming req see
system.mem_ctrls.wrQLenPdf::34                    118                       # What write queue length does an incoming req see
system.mem_ctrls.wrQLenPdf::35                    111                       # What write queue length does an incoming req see
system.mem_ctrls.wrQLenPdf::36                     73                       # What write queue length does an incoming req see
system.mem_ctrls.wrQLenPdf::37                     80                       # What write queue length does an incoming req see
system.mem_ctrls.wrQLenPdf::38                     58                       # What write queue length does an incoming req see
system.mem_ctrls.wrQLenPdf::39                     78                       # What write queue length does an incoming req see
system.mem_ctrls.wrQLenPdf::40                    107                       # What write queue length does an incoming req see
system.mem_ctrls.wrQLenPdf::41                     81                       # What write queue length does an incoming req see
system.mem_ctrls.wrQLenPdf::42                     96                       # What write queue length does an incoming req see
system.mem_ctrls.wrQLenPdf::43                     85                       # What write queue length does an incoming req see
system.mem_ctrls.wrQLenPdf::44                     98                       # What write queue length does an incoming req see
system.mem_ctrls.wrQLenPdf::45                     90                       # What write queue length does an incoming req see
system.mem_ctrls.wrQLenPdf::46                     93                       # What write queue length does an incoming req see
system.mem_ctrls.wrQLenPdf::47                     96                       # What write queue length does an incoming req see
system.mem_ctrls.wrQLenPdf::48                     79                       # What write queue length does an incoming req see
system.mem_ctrls.wrQLenPdf::49                     74                       # What write queue length does an incoming req see
system.mem_ctrls.wrQLenPdf::50                     73                       # What write queue length does an incoming req see
system.mem_ctrls.wrQLenPdf::51                     61                       # What write queue length does an incoming req see
system.mem_ctrls.wrQLenPdf::52                     46                       # What write queue length does an incoming req see
system.mem_ctrls.wrQLenPdf::53                     55                       # What write queue length does an incoming req see
system.mem_ctrls.wrQLenPdf::54                     65                       # What write queue length does an incoming req see
system.mem_ctrls.wrQLenPdf::55                     61                       # What write queue length does an incoming req see
system.mem_ctrls.wrQLenPdf::56                     50                       # What write queue length does an incoming req see
system.mem_ctrls.wrQLenPdf::57                     70                       # What write queue length does an incoming req see
system.mem_ctrls.wrQLenPdf::58                     32                       # What write queue length does an incoming req see
system.mem_ctrls.wrQLenPdf::59                     52                       # What write queue length does an incoming req see
system.mem_ctrls.wrQLenPdf::60                     37                       # What write queue length does an incoming req see
system.mem_ctrls.wrQLenPdf::61                     58                       # What write queue length does an incoming req see
system.mem_ctrls.wrQLenPdf::62                     30                       # What write queue length does an incoming req see
system.mem_ctrls.wrQLenPdf::63                     27                       # What write queue length does an incoming req see
system.mem_ctrls.bytesPerActivate::samples        10725                       # Bytes accessed per row activation
system.mem_ctrls.bytesPerActivate::mean    263.590490                       # Bytes accessed per row activation
system.mem_ctrls.bytesPerActivate::gmean   153.445645                       # Bytes accessed per row activation
system.mem_ctrls.bytesPerActivate::stdev   315.305294                       # Bytes accessed per row activation
system.mem_ctrls.bytesPerActivate::0-127         4773     44.50%     44.50% # Bytes accessed per row activation
system.mem_ctrls.bytesPerActivate::128-255         2401     22.39%     66.89% # Bytes accessed per row activation
system.mem_ctrls.bytesPerActivate::256-383         1660     15.48%     82.37% # Bytes accessed per row activation
system.mem_ctrls.bytesPerActivate::384-511          236      2.20%     84.57% # Bytes accessed per row activation
system.mem_ctrls.bytesPerActivate::512-639          111      1.03%     85.60% # Bytes accessed per row activation
system.mem_ctrls.bytesPerActivate::640-767          108      1.01%     86.61% # Bytes accessed per row activation
system.mem_ctrls.bytesPerActivate::768-895           39      0.36%     86.97% # Bytes accessed per row activation
system.mem_ctrls.bytesPerActivate::896-1023           76      0.71%     87.68% # Bytes accessed per row activation
system.mem_ctrls.bytesPerActivate::1024-1151         1321     12.32%    100.00% # Bytes accessed per row activation
system.mem_ctrls.bytesPerActivate::total        10725                       # Bytes accessed per row activation
system.mem_ctrls.rdPerTurnAround::samples          869                       # Reads before turning the bus around for writes
system.mem_ctrls.rdPerTurnAround::mean      18.225547                       # Reads before turning the bus around for writes
system.mem_ctrls.rdPerTurnAround::stdev     23.475102                       # Reads before turning the bus around for writes
system.mem_ctrls.rdPerTurnAround::0-7             434     49.94%     49.94% # Reads before turning the bus around for writes
system.mem_ctrls.rdPerTurnAround::8-15             19      2.19%     52.13% # Reads before turning the bus around for writes
system.mem_ctrls.rdPerTurnAround::16-23            97     11.16%     63.29% # Reads before turning the bus around for writes
system.mem_ctrls.rdPerTurnAround::24-31           115     13.23%     76.52% # Reads before turning the bus around for writes
system.mem_ctrls.rdPerTurnAround::32-39            73      8.40%     84.93% # Reads before turning the bus around for writes
system.mem_ctrls.rdPerTurnAround::40-47            43      4.95%     89.87% # Reads before turning the bus around for writes
system.mem_ctrls.rdPerTurnAround::48-55            38      4.37%     94.25% # Reads before turning the bus around for writes
system.mem_ctrls.rdPerTurnAround::56-63            18      2.07%     96.32% # Reads before turning the bus around for writes
system.mem_ctrls.rdPerTurnAround::64-71             8      0.92%     97.24% # Reads before turning the bus around for writes
system.mem_ctrls.rdPerTurnAround::72-79             6      0.69%     97.93% # Reads before turning the bus around for writes
system.mem_ctrls.rdPerTurnAround::80-87             6      0.69%     98.62% # Reads before turning the bus around for writes
system.mem_ctrls.rdPerTurnAround::88-95             2      0.23%     98.85% # Reads before turning the bus around for writes
system.mem_ctrls.rdPerTurnAround::96-103            3      0.35%     99.19% # Reads before turning the bus around for writes
system.mem_ctrls.rdPerTurnAround::104-111            3      0.35%     99.54% # Reads before turning the bus around for writes
system.mem_ctrls.rdPerTurnAround::128-135            1      0.12%     99.65% # Reads before turning the bus around for writes
system.mem_ctrls.rdPerTurnAround::152-159            1      0.12%     99.77% # Reads before turning the bus around for writes
system.mem_ctrls.rdPerTurnAround::168-175            1      0.12%     99.88% # Reads before turning the bus around for writes
system.mem_ctrls.rdPerTurnAround::208-215            1      0.12%    100.00% # Reads before turning the bus around for writes
system.mem_ctrls.rdPerTurnAround::total           869                       # Reads before turning the bus around for writes
system.mem_ctrls.wrPerTurnAround::samples          869                       # Writes before turning the bus around for reads
system.mem_ctrls.wrPerTurnAround::mean      32.579977                       # Writes before turning the bus around for reads
system.mem_ctrls.wrPerTurnAround::gmean     27.111956                       # Writes before turning the bus around for reads
system.mem_ctrls.wrPerTurnAround::stdev     24.333884                       # Writes before turning the bus around for reads
system.mem_ctrls.wrPerTurnAround::16-19           375     43.15%     43.15% # Writes before turning the bus around for reads
system.mem_ctrls.wrPerTurnAround::20-23            86      9.90%     53.05% # Writes before turning the bus around for reads
system.mem_ctrls.wrPerTurnAround::24-27            29      3.34%     56.39% # Writes before turning the bus around for reads
system.mem_ctrls.wrPerTurnAround::28-31            28      3.22%     59.61% # Writes before turning the bus around for reads
system.mem_ctrls.wrPerTurnAround::32-35           135     15.54%     75.14% # Writes before turning the bus around for reads
system.mem_ctrls.wrPerTurnAround::36-39            23      2.65%     77.79% # Writes before turning the bus around for reads
system.mem_ctrls.wrPerTurnAround::40-43            14      1.61%     79.40% # Writes before turning the bus around for reads
system.mem_ctrls.wrPerTurnAround::44-47            11      1.27%     80.67% # Writes before turning the bus around for reads
system.mem_ctrls.wrPerTurnAround::48-51            13      1.50%     82.16% # Writes before turning the bus around for reads
system.mem_ctrls.wrPerTurnAround::60-63            10      1.15%     83.31% # Writes before turning the bus around for reads
system.mem_ctrls.wrPerTurnAround::64-67           105     12.08%     95.40% # Writes before turning the bus around for reads
system.mem_ctrls.wrPerTurnAround::68-71             2      0.23%     95.63% # Writes before turning the bus around for reads
system.mem_ctrls.wrPerTurnAround::72-75             4      0.46%     96.09% # Writes before turning the bus around for reads
system.mem_ctrls.wrPerTurnAround::76-79             4      0.46%     96.55% # Writes before turning the bus around for reads
system.mem_ctrls.wrPerTurnAround::80-83             4      0.46%     97.01% # Writes before turning the bus around for reads
system.mem_ctrls.wrPerTurnAround::84-87             2      0.23%     97.24% # Writes before turning the bus around for reads
system.mem_ctrls.wrPerTurnAround::88-91             1      0.12%     97.35% # Writes before turning the bus around for reads
system.mem_ctrls.wrPerTurnAround::92-95             2      0.23%     97.58% # Writes before turning the bus around for reads
system.mem_ctrls.wrPerTurnAround::96-99             1      0.12%     97.70% # Writes before turning the bus around for reads
system.mem_ctrls.wrPerTurnAround::100-103            1      0.12%     97.81% # Writes before turning the bus around for reads
system.mem_ctrls.wrPerTurnAround::104-107            1      0.12%     97.93% # Writes before turning the bus around for reads
system.mem_ctrls.wrPerTurnAround::108-111            2      0.23%     98.16% # Writes before turning the bus around for reads
system.mem_ctrls.wrPerTurnAround::112-115            2      0.23%     98.39% # Writes before turning the bus around for reads
system.mem_ctrls.wrPerTurnAround::124-127            1      0.12%     98.50% # Writes before turning the bus around for reads
system.mem_ctrls.wrPerTurnAround::128-131            6      0.69%     99.19% # Writes before turning the bus around for reads
system.mem_ctrls.wrPerTurnAround::132-135            1      0.12%     99.31% # Writes before turning the bus around for reads
system.mem_ctrls.wrPerTurnAround::140-143            1      0.12%     99.42% # Writes before turning the bus around for reads
system.mem_ctrls.wrPerTurnAround::156-159            1      0.12%     99.54% # Writes before turning the bus around for reads
system.mem_ctrls.wrPerTurnAround::164-167            1      0.12%     99.65% # Writes before turning the bus around for reads
system.mem_ctrls.wrPerTurnAround::192-195            1      0.12%     99.77% # Writes before turning the bus around for reads
system.mem_ctrls.wrPerTurnAround::196-199            1      0.12%     99.88% # Writes before turning the bus around for reads
system.mem_ctrls.wrPerTurnAround::208-211            1      0.12%    100.00% # Writes before turning the bus around for reads
system.mem_ctrls.wrPerTurnAround::total           869                       # Writes before turning the bus around for reads
system.mem_ctrls.totQLat                   1083051798                       # Total ticks spent queuing
system.mem_ctrls.totMemAccLat              1380426798                       # Total ticks spent from burst creation until serviced by the DRAM
system.mem_ctrls.totBusLat                   79300000                       # Total ticks spent in databus transfers
system.mem_ctrls.avgQLat                     68288.26                       # Average queueing delay per DRAM burst
system.mem_ctrls.avgBusLat                    5000.00                       # Average bus latency per DRAM burst
system.mem_ctrls.avgMemAccLat                87038.26                       # Average memory access latency per DRAM burst
system.mem_ctrls.avgRdBW                         0.61                       # Average DRAM read bandwidth in MiByte/s
system.mem_ctrls.avgWrBW                         1.08                       # Average achieved write bandwidth in MiByte/s
system.mem_ctrls.avgRdBWSys                      0.61                       # Average system read bandwidth in MiByte/s
system.mem_ctrls.avgWrBWSys                      1.08                       # Average system write bandwidth in MiByte/s
system.mem_ctrls.peakBW                      12800.00                       # Theoretical peak bandwidth in MiByte/s
system.mem_ctrls.busUtil                         0.01                       # Data bus utilization in percentage
system.mem_ctrls.busUtilRead                     0.00                       # Data bus utilization in percentage for reads
system.mem_ctrls.busUtilWrite                    0.01                       # Data bus utilization in percentage for writes
system.mem_ctrls.avgRdQLen                       1.26                       # Average read queue length when enqueuing
system.mem_ctrls.avgWrQLen                      23.78                       # Average write queue length when enqueuing
system.mem_ctrls.readRowHits                    11299                       # Number of row buffer hits during reads
system.mem_ctrls.writeRowHits                   22148                       # Number of row buffer hits during writes
system.mem_ctrls.readRowHitRate                 71.24                       # Row buffer hit rate for reads
system.mem_ctrls.writeRowHitRate                78.17                       # Row buffer hit rate for writes
system.mem_ctrls.avgGap                   34961445.38                       # Average gap between requests
system.mem_ctrls.pageHitRate                    75.68                       # Row buffer hit rate, read and write combined
system.mem_ctrls_0.actEnergy                 36378300                       # Energy for activate commands per rank (pJ)
system.mem_ctrls_0.preEnergy                 19335525                       # Energy for precharge commands per rank (pJ)
system.mem_ctrls_0.readEnergy                54471060                       # Energy for read commands per rank (pJ)
system.mem_ctrls_0.writeEnergy               65135160                       # Energy for write commands per rank (pJ)
system.mem_ctrls_0.refreshEnergy         708679920.000000                       # Energy for refresh commands per rank (pJ)
system.mem_ctrls_0.actBackEnergy            400283640                       # Energy for active background per rank (pJ)
system.mem_ctrls_0.preBackEnergy             43775520                       # Energy for precharge background per rank (pJ)
system.mem_ctrls_0.actPowerDownEnergy      1408344030                       # Energy for active power-down per rank (pJ)
system.mem_ctrls_0.prePowerDownEnergy      1014758880                       # Energy for precharge power-down per rank (pJ)
system.mem_ctrls_0.selfRefreshEnergy     400422356580                       # Energy for self refresh per rank (pJ)
system.mem_ctrls_0.totalEnergy           404173521975                       # Total energy per rank (pJ)
system.mem_ctrls_0.averagePower            241.375859                       # Core power per rank (mW)
system.mem_ctrls_0.totalIdleTime         1389637176107                       # Total Idle time Per DRAM Rank
system.mem_ctrls_0.memoryStateTime::IDLE     86342752                       # Time in different power states
system.mem_ctrls_0.memoryStateTime::REF     301658000                       # Time in different power states
system.mem_ctrls_0.memoryStateTime::SREF 1667708540000                       # Time in different power states
system.mem_ctrls_0.memoryStateTime::PRE_PDN   2642594460                       # Time in different power states
system.mem_ctrls_0.memoryStateTime::ACT     603886141                       # Time in different power states
system.mem_ctrls_0.memoryStateTime::ACT_PDN   3088503147                       # Time in different power states
system.mem_ctrls_1.actEnergy                 40198200                       # Energy for activate commands per rank (pJ)
system.mem_ctrls_1.preEnergy                 21365850                       # Energy for precharge commands per rank (pJ)
system.mem_ctrls_1.readEnergy                58769340                       # Energy for read commands per rank (pJ)
system.mem_ctrls_1.writeEnergy               82653480                       # Energy for write commands per rank (pJ)
system.mem_ctrls_1.refreshEnergy         775675680.000000                       # Energy for refresh commands per rank (pJ)
system.mem_ctrls_1.actBackEnergy            434093190                       # Energy for active background per rank (pJ)
system.mem_ctrls_1.preBackEnergy             48422880                       # Energy for precharge background per rank (pJ)
system.mem_ctrls_1.actPowerDownEnergy      1536812910                       # Energy for active power-down per rank (pJ)
system.mem_ctrls_1.prePowerDownEnergy      1113036000                       # Energy for precharge power-down per rank (pJ)
system.mem_ctrls_1.selfRefreshEnergy     400289711520                       # Energy for self refresh per rank (pJ)
system.mem_ctrls_1.totalEnergy           404400739050                       # Total energy per rank (pJ)
system.mem_ctrls_1.averagePower            241.511555                       # Core power per rank (mW)
system.mem_ctrls_1.totalIdleTime         1545387573172                       # Total Idle time Per DRAM Rank
system.mem_ctrls_1.memoryStateTime::IDLE     95289246                       # Time in different power states
system.mem_ctrls_1.memoryStateTime::REF     330184000                       # Time in different power states
system.mem_ctrls_1.memoryStateTime::SREF 1667084596500                       # Time in different power states
system.mem_ctrls_1.memoryStateTime::PRE_PDN   2898557607                       # Time in different power states
system.mem_ctrls_1.memoryStateTime::ACT     652727582                       # Time in different power states
system.mem_ctrls_1.memoryStateTime::ACT_PDN   3370169565                       # Time in different power states
system.pwrStateResidencyTicks::UNDEFINED 6474629109500                       # Cumulative time (in ticks) in various power states
system.apicbridge.pwrStateResidencyTicks::UNDEFINED 6474629109500                       # Cumulative time (in ticks) in various power states
system.bridge.pwrStateResidencyTicks::UNDEFINED 6474629109500                       # Cumulative time (in ticks) in various power states
system.cpu_voltage_domain.voltage                   1                       # Voltage in Volts
system.cpu_clk_domain.clock                       500                       # Clock period in ticks
system.cpu0.dtb.walker.pwrStateResidencyTicks::UNDEFINED 6474629109500                       # Cumulative time (in ticks) in various power states
system.cpu0.dtb.rdAccesses                          0                       # TLB accesses on read requests
system.cpu0.dtb.wrAccesses                          0                       # TLB accesses on write requests
system.cpu0.dtb.rdMisses                            0                       # TLB misses on read requests
system.cpu0.dtb.wrMisses                            0                       # TLB misses on write requests
system.cpu0.apic_clk_domain.clock                8000                       # Clock period in ticks
system.cpu0.interrupts.pwrStateResidencyTicks::UNDEFINED 6474629109500                       # Cumulative time (in ticks) in various power states
system.cpu0.itb.walker.pwrStateResidencyTicks::UNDEFINED 6474629109500                       # Cumulative time (in ticks) in various power states
system.cpu0.itb.rdAccesses                          0                       # TLB accesses on read requests
system.cpu0.itb.wrAccesses                          0                       # TLB accesses on write requests
system.cpu0.itb.rdMisses                            0                       # TLB misses on read requests
system.cpu0.itb.wrMisses                            0                       # TLB misses on write requests
system.cpu0.pwrStateResidencyTicks::OFF  6474629107500                       # Cumulative time (in ticks) in various power states
system.cpu0.numCycles                               0                       # number of cpu cycles simulated
system.cpu0.numWorkItemsStarted                     0                       # number of work items this cpu started
system.cpu0.numWorkItemsCompleted                   0                       # number of work items this cpu completed
system.cpu0.kern.inst.arm                           0                       # number of arm instructions executed
system.cpu0.kern.inst.quiesce                       0                       # number of quiesce instructions executed
system.cpu0.committedInsts                          0                       # Number of instructions committed
system.cpu0.committedOps                            0                       # Number of ops (including micro ops) committed
system.cpu0.num_int_alu_accesses                    0                       # Number of integer alu accesses
system.cpu0.num_fp_alu_accesses                     0                       # Number of float alu accesses
system.cpu0.num_vec_alu_accesses                    0                       # Number of vector alu accesses
system.cpu0.num_func_calls                          0                       # number of times a function call or return occured
system.cpu0.num_conditional_control_insts            0                       # number of instructions that are conditional controls
system.cpu0.num_int_insts                           0                       # number of integer instructions
system.cpu0.num_fp_insts                            0                       # number of float instructions
system.cpu0.num_vec_insts                           0                       # number of vector instructions
system.cpu0.num_int_register_reads                  0                       # number of times the integer registers were read
system.cpu0.num_int_register_writes                 0                       # number of times the integer registers were written
system.cpu0.num_fp_register_reads                   0                       # number of times the floating registers were read
system.cpu0.num_fp_register_writes                  0                       # number of times the floating registers were written
system.cpu0.num_vec_register_reads                  0                       # number of times the vector registers were read
system.cpu0.num_vec_register_writes                 0                       # number of times the vector registers were written
system.cpu0.num_mem_refs                            0                       # number of memory refs
system.cpu0.num_load_insts                          0                       # Number of load instructions
system.cpu0.num_store_insts                         0                       # Number of store instructions
system.cpu0.num_idle_cycles                         0                       # Number of idle cycles
system.cpu0.num_busy_cycles                         0                       # Number of busy cycles
system.cpu0.not_idle_fraction                       1                       # Percentage of non-idle cycles
system.cpu0.idle_fraction                           0                       # Percentage of idle cycles
system.cpu0.op_class::No_OpClass                    0                       # Class of executed instruction
system.cpu0.op_class::IntAlu                        0                       # Class of executed instruction
system.cpu0.op_class::IntMult                       0                       # Class of executed instruction
system.cpu0.op_class::IntDiv                        0                       # Class of executed instruction
system.cpu0.op_class::FloatAdd                      0                       # Class of executed instruction
system.cpu0.op_class::FloatCmp                      0                       # Class of executed instruction
system.cpu0.op_class::FloatCvt                      0                       # Class of executed instruction
system.cpu0.op_class::FloatMult                     0                       # Class of executed instruction
system.cpu0.op_class::FloatMultAcc                  0                       # Class of executed instruction
system.cpu0.op_class::FloatDiv                      0                       # Class of executed instruction
system.cpu0.op_class::FloatMisc                     0                       # Class of executed instruction
system.cpu0.op_class::FloatSqrt                     0                       # Class of executed instruction
system.cpu0.op_class::SimdAdd                       0                       # Class of executed instruction
system.cpu0.op_class::SimdAddAcc                    0                       # Class of executed instruction
system.cpu0.op_class::SimdAlu                       0                       # Class of executed instruction
system.cpu0.op_class::SimdCmp                       0                       # Class of executed instruction
system.cpu0.op_class::SimdCvt                       0                       # Class of executed instruction
system.cpu0.op_class::SimdMisc                      0                       # Class of executed instruction
system.cpu0.op_class::SimdMult                      0                       # Class of executed instruction
system.cpu0.op_class::SimdMultAcc                   0                       # Class of executed instruction
system.cpu0.op_class::SimdShift                     0                       # Class of executed instruction
system.cpu0.op_class::SimdShiftAcc                  0                       # Class of executed instruction
system.cpu0.op_class::SimdSqrt                      0                       # Class of executed instruction
system.cpu0.op_class::SimdFloatAdd                  0                       # Class of executed instruction
system.cpu0.op_class::SimdFloatAlu                  0                       # Class of executed instruction
system.cpu0.op_class::SimdFloatCmp                  0                       # Class of executed instruction
system.cpu0.op_class::SimdFloatCvt                  0                       # Class of executed instruction
system.cpu0.op_class::SimdFloatDiv                  0                       # Class of executed instruction
system.cpu0.op_class::SimdFloatMisc                 0                       # Class of executed instruction
system.cpu0.op_class::SimdFloatMult                 0                       # Class of executed instruction
system.cpu0.op_class::SimdFloatMultAcc              0                       # Class of executed instruction
system.cpu0.op_class::SimdFloatSqrt                 0                       # Class of executed instruction
system.cpu0.op_class::MemRead                       0                       # Class of executed instruction
system.cpu0.op_class::MemWrite                      0                       # Class of executed instruction
system.cpu0.op_class::FloatMemRead                  0                       # Class of executed instruction
system.cpu0.op_class::FloatMemWrite                 0                       # Class of executed instruction
system.cpu0.op_class::IprAccess                     0                       # Class of executed instruction
system.cpu0.op_class::InstPrefetch                  0                       # Class of executed instruction
system.cpu0.op_class::total                         0                       # Class of executed instruction
system.cpu0.dcache.tags.pwrStateResidencyTicks::UNDEFINED 6474629109500                       # Cumulative time (in ticks) in various power states
system.cpu0.dcache.tags.replacements            19379                       # number of replacements
system.cpu0.dcache.tags.tagsinuse          925.024304                       # Cycle average of tags in use
system.cpu0.dcache.tags.total_refs            1064336                       # Total number of references to valid blocks.
system.cpu0.dcache.tags.sampled_refs            20362                       # Sample count of references to valid blocks.
system.cpu0.dcache.tags.avg_refs            52.270700                       # Average number of references to valid blocks.
system.cpu0.dcache.tags.warmup_cycle                0                       # Cycle when the warmup percentage was hit.
system.cpu0.dcache.tags.occ_blocks::switch_cpus0.data    30.007432                       # Average occupied blocks per requestor
system.cpu0.dcache.tags.occ_blocks::switch_cpus_10.data   895.016873                       # Average occupied blocks per requestor
system.cpu0.dcache.tags.occ_percent::switch_cpus0.data     0.029304                       # Average percentage of cache occupancy
system.cpu0.dcache.tags.occ_percent::switch_cpus_10.data     0.874040                       # Average percentage of cache occupancy
system.cpu0.dcache.tags.occ_percent::total     0.903344                       # Average percentage of cache occupancy
system.cpu0.dcache.tags.occ_task_id_blocks::1024          983                       # Occupied blocks per task id
system.cpu0.dcache.tags.age_task_id_blocks_1024::3            6                       # Occupied blocks per task id
system.cpu0.dcache.tags.age_task_id_blocks_1024::4          977                       # Occupied blocks per task id
system.cpu0.dcache.tags.occ_task_id_percent::1024     0.959961                       # Percentage of cache occupancy per task id
system.cpu0.dcache.tags.tag_accesses          2256526                       # Number of tag accesses
system.cpu0.dcache.tags.data_accesses         2256526                       # Number of data accesses
system.cpu0.dcache.pwrStateResidencyTicks::UNDEFINED 6474629109500                       # Cumulative time (in ticks) in various power states
system.cpu0.dcache.ReadReq_hits::switch_cpus0.data         6199                       # number of ReadReq hits
system.cpu0.dcache.ReadReq_hits::switch_cpus_10.data       662834                       # number of ReadReq hits
system.cpu0.dcache.ReadReq_hits::total         669033                       # number of ReadReq hits
system.cpu0.dcache.WriteReq_hits::switch_cpus0.data         3461                       # number of WriteReq hits
system.cpu0.dcache.WriteReq_hits::switch_cpus_10.data       412617                       # number of WriteReq hits
system.cpu0.dcache.WriteReq_hits::total        416078                       # number of WriteReq hits
system.cpu0.dcache.SoftPFReq_hits::switch_cpus0.data            6                       # number of SoftPFReq hits
system.cpu0.dcache.SoftPFReq_hits::switch_cpus_10.data          105                       # number of SoftPFReq hits
system.cpu0.dcache.SoftPFReq_hits::total          111                       # number of SoftPFReq hits
system.cpu0.dcache.demand_hits::switch_cpus0.data         9660                       # number of demand (read+write) hits
system.cpu0.dcache.demand_hits::switch_cpus_10.data      1075451                       # number of demand (read+write) hits
system.cpu0.dcache.demand_hits::total         1085111                       # number of demand (read+write) hits
system.cpu0.dcache.overall_hits::switch_cpus0.data         9666                       # number of overall hits
system.cpu0.dcache.overall_hits::switch_cpus_10.data      1075556                       # number of overall hits
system.cpu0.dcache.overall_hits::total        1085222                       # number of overall hits
system.cpu0.dcache.ReadReq_misses::switch_cpus0.data           80                       # number of ReadReq misses
system.cpu0.dcache.ReadReq_misses::switch_cpus_10.data        21399                       # number of ReadReq misses
system.cpu0.dcache.ReadReq_misses::total        21479                       # number of ReadReq misses
system.cpu0.dcache.WriteReq_misses::switch_cpus0.data           67                       # number of WriteReq misses
system.cpu0.dcache.WriteReq_misses::switch_cpus_10.data         8478                       # number of WriteReq misses
system.cpu0.dcache.WriteReq_misses::total         8545                       # number of WriteReq misses
system.cpu0.dcache.SoftPFReq_misses::switch_cpus_10.data          441                       # number of SoftPFReq misses
system.cpu0.dcache.SoftPFReq_misses::total          441                       # number of SoftPFReq misses
system.cpu0.dcache.demand_misses::switch_cpus0.data          147                       # number of demand (read+write) misses
system.cpu0.dcache.demand_misses::switch_cpus_10.data        29877                       # number of demand (read+write) misses
system.cpu0.dcache.demand_misses::total         30024                       # number of demand (read+write) misses
system.cpu0.dcache.overall_misses::switch_cpus0.data          147                       # number of overall misses
system.cpu0.dcache.overall_misses::switch_cpus_10.data        30318                       # number of overall misses
system.cpu0.dcache.overall_misses::total        30465                       # number of overall misses
system.cpu0.dcache.ReadReq_miss_latency::switch_cpus_10.data    200403500                       # number of ReadReq miss cycles
system.cpu0.dcache.ReadReq_miss_latency::total    200403500                       # number of ReadReq miss cycles
system.cpu0.dcache.WriteReq_miss_latency::switch_cpus_10.data    104065500                       # number of WriteReq miss cycles
system.cpu0.dcache.WriteReq_miss_latency::total    104065500                       # number of WriteReq miss cycles
system.cpu0.dcache.demand_miss_latency::switch_cpus_10.data    304469000                       # number of demand (read+write) miss cycles
system.cpu0.dcache.demand_miss_latency::total    304469000                       # number of demand (read+write) miss cycles
system.cpu0.dcache.overall_miss_latency::switch_cpus_10.data    304469000                       # number of overall miss cycles
system.cpu0.dcache.overall_miss_latency::total    304469000                       # number of overall miss cycles
system.cpu0.dcache.ReadReq_accesses::switch_cpus0.data         6279                       # number of ReadReq accesses(hits+misses)
system.cpu0.dcache.ReadReq_accesses::switch_cpus_10.data       684233                       # number of ReadReq accesses(hits+misses)
system.cpu0.dcache.ReadReq_accesses::total       690512                       # number of ReadReq accesses(hits+misses)
system.cpu0.dcache.WriteReq_accesses::switch_cpus0.data         3528                       # number of WriteReq accesses(hits+misses)
system.cpu0.dcache.WriteReq_accesses::switch_cpus_10.data       421095                       # number of WriteReq accesses(hits+misses)
system.cpu0.dcache.WriteReq_accesses::total       424623                       # number of WriteReq accesses(hits+misses)
system.cpu0.dcache.SoftPFReq_accesses::switch_cpus0.data            6                       # number of SoftPFReq accesses(hits+misses)
system.cpu0.dcache.SoftPFReq_accesses::switch_cpus_10.data          546                       # number of SoftPFReq accesses(hits+misses)
system.cpu0.dcache.SoftPFReq_accesses::total          552                       # number of SoftPFReq accesses(hits+misses)
system.cpu0.dcache.demand_accesses::switch_cpus0.data         9807                       # number of demand (read+write) accesses
system.cpu0.dcache.demand_accesses::switch_cpus_10.data      1105328                       # number of demand (read+write) accesses
system.cpu0.dcache.demand_accesses::total      1115135                       # number of demand (read+write) accesses
system.cpu0.dcache.overall_accesses::switch_cpus0.data         9813                       # number of overall (read+write) accesses
system.cpu0.dcache.overall_accesses::switch_cpus_10.data      1105874                       # number of overall (read+write) accesses
system.cpu0.dcache.overall_accesses::total      1115687                       # number of overall (read+write) accesses
system.cpu0.dcache.ReadReq_miss_rate::switch_cpus0.data     0.012741                       # miss rate for ReadReq accesses
system.cpu0.dcache.ReadReq_miss_rate::switch_cpus_10.data     0.031274                       # miss rate for ReadReq accesses
system.cpu0.dcache.ReadReq_miss_rate::total     0.031106                       # miss rate for ReadReq accesses
system.cpu0.dcache.WriteReq_miss_rate::switch_cpus0.data     0.018991                       # miss rate for WriteReq accesses
system.cpu0.dcache.WriteReq_miss_rate::switch_cpus_10.data     0.020133                       # miss rate for WriteReq accesses
system.cpu0.dcache.WriteReq_miss_rate::total     0.020124                       # miss rate for WriteReq accesses
system.cpu0.dcache.SoftPFReq_miss_rate::switch_cpus_10.data     0.807692                       # miss rate for SoftPFReq accesses
system.cpu0.dcache.SoftPFReq_miss_rate::total     0.798913                       # miss rate for SoftPFReq accesses
system.cpu0.dcache.demand_miss_rate::switch_cpus0.data     0.014989                       # miss rate for demand accesses
system.cpu0.dcache.demand_miss_rate::switch_cpus_10.data     0.027030                       # miss rate for demand accesses
system.cpu0.dcache.demand_miss_rate::total     0.026924                       # miss rate for demand accesses
system.cpu0.dcache.overall_miss_rate::switch_cpus0.data     0.014980                       # miss rate for overall accesses
system.cpu0.dcache.overall_miss_rate::switch_cpus_10.data     0.027415                       # miss rate for overall accesses
system.cpu0.dcache.overall_miss_rate::total     0.027306                       # miss rate for overall accesses
system.cpu0.dcache.ReadReq_avg_miss_latency::switch_cpus_10.data  9365.087154                       # average ReadReq miss latency
system.cpu0.dcache.ReadReq_avg_miss_latency::total  9330.206248                       # average ReadReq miss latency
system.cpu0.dcache.WriteReq_avg_miss_latency::switch_cpus_10.data 12274.769993                       # average WriteReq miss latency
system.cpu0.dcache.WriteReq_avg_miss_latency::total 12178.525453                       # average WriteReq miss latency
system.cpu0.dcache.demand_avg_miss_latency::switch_cpus_10.data 10190.748736                       # average overall miss latency
system.cpu0.dcache.demand_avg_miss_latency::total 10140.853983                       # average overall miss latency
system.cpu0.dcache.overall_avg_miss_latency::switch_cpus_10.data 10042.515997                       # average overall miss latency
system.cpu0.dcache.overall_avg_miss_latency::total  9994.058756                       # average overall miss latency
system.cpu0.dcache.blocked_cycles::no_mshrs            0                       # number of cycles access was blocked
system.cpu0.dcache.blocked_cycles::no_targets            0                       # number of cycles access was blocked
system.cpu0.dcache.blocked::no_mshrs                0                       # number of cycles access was blocked
system.cpu0.dcache.blocked::no_targets              0                       # number of cycles access was blocked
system.cpu0.dcache.avg_blocked_cycles::no_mshrs          nan                       # average number of cycles each access was blocked
system.cpu0.dcache.avg_blocked_cycles::no_targets          nan                       # average number of cycles each access was blocked
system.cpu0.dcache.writebacks::writebacks         8811                       # number of writebacks
system.cpu0.dcache.writebacks::total             8811                       # number of writebacks
system.cpu0.dcache.WriteReq_mshr_hits::switch_cpus_10.data            4                       # number of WriteReq MSHR hits
system.cpu0.dcache.WriteReq_mshr_hits::total            4                       # number of WriteReq MSHR hits
system.cpu0.dcache.demand_mshr_hits::switch_cpus_10.data            4                       # number of demand (read+write) MSHR hits
system.cpu0.dcache.demand_mshr_hits::total            4                       # number of demand (read+write) MSHR hits
system.cpu0.dcache.overall_mshr_hits::switch_cpus_10.data            4                       # number of overall MSHR hits
system.cpu0.dcache.overall_mshr_hits::total            4                       # number of overall MSHR hits
system.cpu0.dcache.ReadReq_mshr_misses::switch_cpus_10.data        21399                       # number of ReadReq MSHR misses
system.cpu0.dcache.ReadReq_mshr_misses::total        21399                       # number of ReadReq MSHR misses
system.cpu0.dcache.WriteReq_mshr_misses::switch_cpus_10.data         8474                       # number of WriteReq MSHR misses
system.cpu0.dcache.WriteReq_mshr_misses::total         8474                       # number of WriteReq MSHR misses
system.cpu0.dcache.SoftPFReq_mshr_misses::switch_cpus_10.data          441                       # number of SoftPFReq MSHR misses
system.cpu0.dcache.SoftPFReq_mshr_misses::total          441                       # number of SoftPFReq MSHR misses
system.cpu0.dcache.demand_mshr_misses::switch_cpus_10.data        29873                       # number of demand (read+write) MSHR misses
system.cpu0.dcache.demand_mshr_misses::total        29873                       # number of demand (read+write) MSHR misses
system.cpu0.dcache.overall_mshr_misses::switch_cpus_10.data        30314                       # number of overall MSHR misses
system.cpu0.dcache.overall_mshr_misses::total        30314                       # number of overall MSHR misses
system.cpu0.dcache.ReadReq_mshr_uncacheable::switch_cpus_10.data           23                       # number of ReadReq MSHR uncacheable
system.cpu0.dcache.ReadReq_mshr_uncacheable::total           23                       # number of ReadReq MSHR uncacheable
system.cpu0.dcache.WriteReq_mshr_uncacheable::switch_cpus_10.data          471                       # number of WriteReq MSHR uncacheable
system.cpu0.dcache.WriteReq_mshr_uncacheable::total          471                       # number of WriteReq MSHR uncacheable
system.cpu0.dcache.overall_mshr_uncacheable_misses::switch_cpus_10.data          494                       # number of overall MSHR uncacheable misses
system.cpu0.dcache.overall_mshr_uncacheable_misses::total          494                       # number of overall MSHR uncacheable misses
system.cpu0.dcache.ReadReq_mshr_miss_latency::switch_cpus_10.data    179004500                       # number of ReadReq MSHR miss cycles
system.cpu0.dcache.ReadReq_mshr_miss_latency::total    179004500                       # number of ReadReq MSHR miss cycles
system.cpu0.dcache.WriteReq_mshr_miss_latency::switch_cpus_10.data     95263500                       # number of WriteReq MSHR miss cycles
system.cpu0.dcache.WriteReq_mshr_miss_latency::total     95263500                       # number of WriteReq MSHR miss cycles
system.cpu0.dcache.SoftPFReq_mshr_miss_latency::switch_cpus_10.data      3278500                       # number of SoftPFReq MSHR miss cycles
system.cpu0.dcache.SoftPFReq_mshr_miss_latency::total      3278500                       # number of SoftPFReq MSHR miss cycles
system.cpu0.dcache.demand_mshr_miss_latency::switch_cpus_10.data    274268000                       # number of demand (read+write) MSHR miss cycles
system.cpu0.dcache.demand_mshr_miss_latency::total    274268000                       # number of demand (read+write) MSHR miss cycles
system.cpu0.dcache.overall_mshr_miss_latency::switch_cpus_10.data    277546500                       # number of overall MSHR miss cycles
system.cpu0.dcache.overall_mshr_miss_latency::total    277546500                       # number of overall MSHR miss cycles
system.cpu0.dcache.ReadReq_mshr_uncacheable_latency::switch_cpus_10.data      3787000                       # number of ReadReq MSHR uncacheable cycles
system.cpu0.dcache.ReadReq_mshr_uncacheable_latency::total      3787000                       # number of ReadReq MSHR uncacheable cycles
system.cpu0.dcache.overall_mshr_uncacheable_latency::switch_cpus_10.data      3787000                       # number of overall MSHR uncacheable cycles
system.cpu0.dcache.overall_mshr_uncacheable_latency::total      3787000                       # number of overall MSHR uncacheable cycles
system.cpu0.dcache.ReadReq_mshr_miss_rate::switch_cpus_10.data     0.031274                       # mshr miss rate for ReadReq accesses
system.cpu0.dcache.ReadReq_mshr_miss_rate::total     0.030990                       # mshr miss rate for ReadReq accesses
system.cpu0.dcache.WriteReq_mshr_miss_rate::switch_cpus_10.data     0.020124                       # mshr miss rate for WriteReq accesses
system.cpu0.dcache.WriteReq_mshr_miss_rate::total     0.019957                       # mshr miss rate for WriteReq accesses
system.cpu0.dcache.SoftPFReq_mshr_miss_rate::switch_cpus_10.data     0.807692                       # mshr miss rate for SoftPFReq accesses
system.cpu0.dcache.SoftPFReq_mshr_miss_rate::total     0.798913                       # mshr miss rate for SoftPFReq accesses
system.cpu0.dcache.demand_mshr_miss_rate::switch_cpus_10.data     0.027026                       # mshr miss rate for demand accesses
system.cpu0.dcache.demand_mshr_miss_rate::total     0.026789                       # mshr miss rate for demand accesses
system.cpu0.dcache.overall_mshr_miss_rate::switch_cpus_10.data     0.027412                       # mshr miss rate for overall accesses
system.cpu0.dcache.overall_mshr_miss_rate::total     0.027171                       # mshr miss rate for overall accesses
system.cpu0.dcache.ReadReq_avg_mshr_miss_latency::switch_cpus_10.data  8365.087154                       # average ReadReq mshr miss latency
system.cpu0.dcache.ReadReq_avg_mshr_miss_latency::total  8365.087154                       # average ReadReq mshr miss latency
system.cpu0.dcache.WriteReq_avg_mshr_miss_latency::switch_cpus_10.data 11241.857446                       # average WriteReq mshr miss latency
system.cpu0.dcache.WriteReq_avg_mshr_miss_latency::total 11241.857446                       # average WriteReq mshr miss latency
system.cpu0.dcache.SoftPFReq_avg_mshr_miss_latency::switch_cpus_10.data  7434.240363                       # average SoftPFReq mshr miss latency
system.cpu0.dcache.SoftPFReq_avg_mshr_miss_latency::total  7434.240363                       # average SoftPFReq mshr miss latency
system.cpu0.dcache.demand_avg_mshr_miss_latency::switch_cpus_10.data  9181.133465                       # average overall mshr miss latency
system.cpu0.dcache.demand_avg_mshr_miss_latency::total  9181.133465                       # average overall mshr miss latency
system.cpu0.dcache.overall_avg_mshr_miss_latency::switch_cpus_10.data  9155.720129                       # average overall mshr miss latency
system.cpu0.dcache.overall_avg_mshr_miss_latency::total  9155.720129                       # average overall mshr miss latency
[...]
system.tol2bus.pkt_count_system.cpu4.icache.mem_side::system.l2.cpu_side        39411                       # Packet count per connected master and slave (bytes)
system.tol2bus.pkt_count_system.cpu4.dcache.mem_side::system.l2.cpu_side        53170                       # Packet count per connected master and slave (bytes)
system.tol2bus.pkt_count_system.cpu4.itb_walker_cache.mem_side::system.l2.cpu_side           35                       # Packet count per connected master and slave (bytes)
system.tol2bus.pkt_count_system.cpu4.dtb_walker_cache.mem_side::system.l2.cpu_side          251                       # Packet count per connected master and slave (bytes)
system.tol2bus.pkt_count_system.cpu5.icache.mem_side::system.l2.cpu_side        34062                       # Packet count per connected master and slave (bytes)
system.tol2bus.pkt_count_system.cpu5.dcache.mem_side::system.l2.cpu_side        47539                       # Packet count per connected master and slave (bytes)
system.tol2bus.pkt_count_system.cpu5.itb_walker_cache.mem_side::system.l2.cpu_side           38                       # Packet count per connected master and slave (bytes)
system.tol2bus.pkt_count_system.cpu5.dtb_walker_cache.mem_side::system.l2.cpu_side          233                       # Packet count per connected master and slave (bytes)
system.tol2bus.pkt_count_system.cpu6.icache.mem_side::system.l2.cpu_side        21945                       # Packet count per connected master and slave (bytes)
system.tol2bus.pkt_count_system.cpu6.dcache.mem_side::system.l2.cpu_side        12832                       # Packet count per connected master and slave (bytes)
system.tol2bus.pkt_count_system.cpu6.itb_walker_cache.mem_side::system.l2.cpu_side          138                       # Packet count per connected master and slave (bytes)
system.tol2bus.pkt_count_system.cpu6.dtb_walker_cache.mem_side::system.l2.cpu_side          281                       # Packet count per connected master and slave (bytes)
system.tol2bus.pkt_count_system.cpu7.icache.mem_side::system.l2.cpu_side        34113                       # Packet count per connected master and slave (bytes)
system.tol2bus.pkt_count_system.cpu7.dcache.mem_side::system.l2.cpu_side        49313                       # Packet count per connected master and slave (bytes)
system.tol2bus.pkt_count_system.cpu7.itb_walker_cache.mem_side::system.l2.cpu_side           30                       # Packet count per connected master and slave (bytes)
system.tol2bus.pkt_count_system.cpu7.dtb_walker_cache.mem_side::system.l2.cpu_side          229                       # Packet count per connected master and slave (bytes)
system.tol2bus.pkt_count::total                691625                       # Packet count per connected master and slave (bytes)
system.tol2bus.pkt_size_system.cpu0.icache.mem_side::system.l2.cpu_side      2599936                       # Cumulative packet size per connected master and slave (bytes)
system.tol2bus.pkt_size_system.cpu0.dcache.mem_side::system.l2.cpu_side      1352644                       # Cumulative packet size per connected master and slave (bytes)
system.tol2bus.pkt_size_system.cpu0.itb_walker_cache.mem_side::system.l2.cpu_side         9536                       # Cumulative packet size per connected master and slave (bytes)
system.tol2bus.pkt_size_system.cpu0.dtb_walker_cache.mem_side::system.l2.cpu_side        14080                       # Cumulative packet size per connected master and slave (bytes)
system.tol2bus.pkt_size_system.cpu1.icache.mem_side::system.l2.cpu_side      1550464                       # Cumulative packet size per connected master and slave (bytes)
system.tol2bus.pkt_size_system.cpu1.dcache.mem_side::system.l2.cpu_side       953000                       # Cumulative packet size per connected master and slave (bytes)
system.tol2bus.pkt_size_system.cpu1.itb_walker_cache.mem_side::system.l2.cpu_side         3520                       # Cumulative packet size per connected master and slave (bytes)
system.tol2bus.pkt_size_system.cpu1.dtb_walker_cache.mem_side::system.l2.cpu_side         8064                       # Cumulative packet size per connected master and slave (bytes)
system.tol2bus.pkt_size_system.cpu2.icache.mem_side::system.l2.cpu_side      1564032                       # Cumulative packet size per connected master and slave (bytes)
system.tol2bus.pkt_size_system.cpu2.dcache.mem_side::system.l2.cpu_side       919964                       # Cumulative packet size per connected master and slave (bytes)
system.tol2bus.pkt_size_system.cpu2.itb_walker_cache.mem_side::system.l2.cpu_side          512                       # Cumulative packet size per connected master and slave (bytes)
system.tol2bus.pkt_size_system.cpu2.dtb_walker_cache.mem_side::system.l2.cpu_side         4544                       # Cumulative packet size per connected master and slave (bytes)
system.tol2bus.pkt_size_system.cpu3.icache.mem_side::system.l2.cpu_side      1525632                       # Cumulative packet size per connected master and slave (bytes)
system.tol2bus.pkt_size_system.cpu3.dcache.mem_side::system.l2.cpu_side       942864                       # Cumulative packet size per connected master and slave (bytes)
system.tol2bus.pkt_size_system.cpu3.itb_walker_cache.mem_side::system.l2.cpu_side          384                       # Cumulative packet size per connected master and slave (bytes)
system.tol2bus.pkt_size_system.cpu3.dtb_walker_cache.mem_side::system.l2.cpu_side         5056                       # Cumulative packet size per connected master and slave (bytes)
system.tol2bus.pkt_size_system.cpu4.icache.mem_side::system.l2.cpu_side      1681536                       # Cumulative packet size per connected master and slave (bytes)
system.tol2bus.pkt_size_system.cpu4.dcache.mem_side::system.l2.cpu_side       901570                       # Cumulative packet size per connected master and slave (bytes)
system.tol2bus.pkt_size_system.cpu4.itb_walker_cache.mem_side::system.l2.cpu_side          384                       # Cumulative packet size per connected master and slave (bytes)
system.tol2bus.pkt_size_system.cpu4.dtb_walker_cache.mem_side::system.l2.cpu_side         4608                       # Cumulative packet size per connected master and slave (bytes)
system.tol2bus.pkt_size_system.cpu5.icache.mem_side::system.l2.cpu_side      1453312                       # Cumulative packet size per connected master and slave (bytes)
system.tol2bus.pkt_size_system.cpu5.dcache.mem_side::system.l2.cpu_side       822566                       # Cumulative packet size per connected master and slave (bytes)
system.tol2bus.pkt_size_system.cpu5.itb_walker_cache.mem_side::system.l2.cpu_side          192                       # Cumulative packet size per connected master and slave (bytes)
system.tol2bus.pkt_size_system.cpu5.dtb_walker_cache.mem_side::system.l2.cpu_side         4224                       # Cumulative packet size per connected master and slave (bytes)
system.tol2bus.pkt_size_system.cpu6.icache.mem_side::system.l2.cpu_side       936320                       # Cumulative packet size per connected master and slave (bytes)
system.tol2bus.pkt_size_system.cpu6.dcache.mem_side::system.l2.cpu_side       180714                       # Cumulative packet size per connected master and slave (bytes)
system.tol2bus.pkt_size_system.cpu6.itb_walker_cache.mem_side::system.l2.cpu_side         1472                       # Cumulative packet size per connected master and slave (bytes)
system.tol2bus.pkt_size_system.cpu6.dtb_walker_cache.mem_side::system.l2.cpu_side         5120                       # Cumulative packet size per connected master and slave (bytes)
system.tol2bus.pkt_size_system.cpu7.icache.mem_side::system.l2.cpu_side      1455488                       # Cumulative packet size per connected master and slave (bytes)
system.tol2bus.pkt_size_system.cpu7.dcache.mem_side::system.l2.cpu_side       846588                       # Cumulative packet size per connected master and slave (bytes)
system.tol2bus.pkt_size_system.cpu7.itb_walker_cache.mem_side::system.l2.cpu_side          128                       # Cumulative packet size per connected master and slave (bytes)
system.tol2bus.pkt_size_system.cpu7.dtb_walker_cache.mem_side::system.l2.cpu_side         4608                       # Cumulative packet size per connected master and slave (bytes)
system.tol2bus.pkt_size::total               19753062                       # Cumulative packet size per connected master and slave (bytes)
system.tol2bus.snoops                          201671                       # Total snoops (count)
system.tol2bus.snoopTraffic                   7032896                       # Total snoop traffic (bytes)
system.tol2bus.snoop_fanout::samples           384101                       # Request fanout histogram
system.tol2bus.snoop_fanout::mean            2.382949                       # Request fanout histogram
system.tol2bus.snoop_fanout::stdev           2.689413                       # Request fanout histogram
system.tol2bus.snoop_fanout::underflows             0      0.00%      0.00% # Request fanout histogram
system.tol2bus.snoop_fanout::0                 104854     27.30%     27.30% # Request fanout histogram
system.tol2bus.snoop_fanout::1                 129273     33.66%     60.95% # Request fanout histogram
system.tol2bus.snoop_fanout::2                  36374      9.47%     70.42% # Request fanout histogram
system.tol2bus.snoop_fanout::3                   8269      2.15%     72.58% # Request fanout histogram
system.tol2bus.snoop_fanout::4                   6313      1.64%     74.22% # Request fanout histogram
system.tol2bus.snoop_fanout::5                   4607      1.20%     75.42% # Request fanout histogram
system.tol2bus.snoop_fanout::6                  26215      6.83%     82.25% # Request fanout histogram
system.tol2bus.snoop_fanout::7                  65824     17.14%     99.38% # Request fanout histogram
system.tol2bus.snoop_fanout::8                   1834      0.48%     99.86% # Request fanout histogram
system.tol2bus.snoop_fanout::9                     21      0.01%     99.87% # Request fanout histogram
system.tol2bus.snoop_fanout::10                    92      0.02%     99.89% # Request fanout histogram
system.tol2bus.snoop_fanout::11                    19      0.00%     99.89% # Request fanout histogram
system.tol2bus.snoop_fanout::12                    40      0.01%     99.90% # Request fanout histogram
system.tol2bus.snoop_fanout::13                    64      0.02%     99.92% # Request fanout histogram
system.tol2bus.snoop_fanout::14                    77      0.02%     99.94% # Request fanout histogram
system.tol2bus.snoop_fanout::15                    76      0.02%     99.96% # Request fanout histogram
system.tol2bus.snoop_fanout::16                    15      0.00%     99.97% # Request fanout histogram
system.tol2bus.snoop_fanout::17                    52      0.01%     99.98% # Request fanout histogram
system.tol2bus.snoop_fanout::18                    82      0.02%    100.00% # Request fanout histogram
system.tol2bus.snoop_fanout::19                     0      0.00%    100.00% # Request fanout histogram
system.tol2bus.snoop_fanout::20                     0      0.00%    100.00% # Request fanout histogram
system.tol2bus.snoop_fanout::21                     0      0.00%    100.00% # Request fanout histogram
system.tol2bus.snoop_fanout::22                     0      0.00%    100.00% # Request fanout histogram
system.tol2bus.snoop_fanout::23                     0      0.00%    100.00% # Request fanout histogram
system.tol2bus.snoop_fanout::24                     0      0.00%    100.00% # Request fanout histogram
system.tol2bus.snoop_fanout::25                     0      0.00%    100.00% # Request fanout histogram
system.tol2bus.snoop_fanout::26                     0      0.00%    100.00% # Request fanout histogram
system.tol2bus.snoop_fanout::27                     0      0.00%    100.00% # Request fanout histogram
system.tol2bus.snoop_fanout::28                     0      0.00%    100.00% # Request fanout histogram
system.tol2bus.snoop_fanout::29                     0      0.00%    100.00% # Request fanout histogram
system.tol2bus.snoop_fanout::30                     0      0.00%    100.00% # Request fanout histogram
system.tol2bus.snoop_fanout::31                     0      0.00%    100.00% # Request fanout histogram
system.tol2bus.snoop_fanout::32                     0      0.00%    100.00% # Request fanout histogram
system.tol2bus.snoop_fanout::overflows              0      0.00%    100.00% # Request fanout histogram
system.tol2bus.snoop_fanout::min_value              0                       # Request fanout histogram
system.tol2bus.snoop_fanout::max_value             18                       # Request fanout histogram
system.tol2bus.snoop_fanout::total             384101                       # Request fanout histogram
system.tol2bus.reqLayer0.occupancy          396953998                       # Layer occupancy (ticks)
system.tol2bus.reqLayer0.utilization              0.0                       # Layer utilization (%)
system.tol2bus.snoopLayer0.occupancy           223976                       # Layer occupancy (ticks)
system.tol2bus.snoopLayer0.utilization            0.0                       # Layer utilization (%)
system.tol2bus.respLayer0.occupancy          30153000                       # Layer occupancy (ticks)
system.tol2bus.respLayer0.utilization             0.0                       # Layer utilization (%)
system.tol2bus.respLayer1.occupancy          40451497                       # Layer occupancy (ticks)
system.tol2bus.respLayer1.utilization             0.0                       # Layer utilization (%)
system.tol2bus.respLayer2.occupancy            409500                       # Layer occupancy (ticks)
system.tol2bus.respLayer2.utilization             0.0                       # Layer utilization (%)
system.tol2bus.respLayer3.occupancy            501000                       # Layer occupancy (ticks)
system.tol2bus.respLayer3.utilization             0.0                       # Layer utilization (%)
system.tol2bus.respLayer4.occupancy          18170997                       # Layer occupancy (ticks)
system.tol2bus.respLayer4.utilization             0.0                       # Layer utilization (%)
system.tol2bus.respLayer5.occupancy          34376499                       # Layer occupancy (ticks)
system.tol2bus.respLayer5.utilization             0.0                       # Layer utilization (%)
system.tol2bus.respLayer6.occupancy            291000                       # Layer occupancy (ticks)
system.tol2bus.respLayer6.utilization             0.0                       # Layer utilization (%)
system.tol2bus.respLayer7.occupancy            318000                       # Layer occupancy (ticks)
system.tol2bus.respLayer7.utilization             0.0                       # Layer utilization (%)
system.tol2bus.respLayer8.occupancy          18328500                       # Layer occupancy (ticks)
system.tol2bus.respLayer8.utilization             0.0                       # Layer utilization (%)
system.tol2bus.respLayer9.occupancy          37222500                       # Layer occupancy (ticks)
system.tol2bus.respLayer9.utilization             0.0                       # Layer utilization (%)
system.tol2bus.respLayer10.occupancy            46500                       # Layer occupancy (ticks)
system.tol2bus.respLayer10.utilization            0.0                       # Layer utilization (%)
system.tol2bus.respLayer11.occupancy           147000                       # Layer occupancy (ticks)
system.tol2bus.respLayer11.utilization            0.0                       # Layer utilization (%)
system.tol2bus.respLayer12.occupancy         17878500                       # Layer occupancy (ticks)
system.tol2bus.respLayer12.utilization            0.0                       # Layer utilization (%)
system.tol2bus.respLayer13.occupancy         37965000                       # Layer occupancy (ticks)
system.tol2bus.respLayer13.utilization            0.0                       # Layer utilization (%)
system.tol2bus.respLayer14.occupancy            33000                       # Layer occupancy (ticks)
system.tol2bus.respLayer14.utilization            0.0                       # Layer utilization (%)
system.tol2bus.respLayer15.occupancy           163500                       # Layer occupancy (ticks)
system.tol2bus.respLayer15.utilization            0.0                       # Layer utilization (%)
system.tol2bus.respLayer16.occupancy         19705999                       # Layer occupancy (ticks)
system.tol2bus.respLayer16.utilization            0.0                       # Layer utilization (%)
system.tol2bus.respLayer17.occupancy         37184495                       # Layer occupancy (ticks)
system.tol2bus.respLayer17.utilization            0.0                       # Layer utilization (%)
system.tol2bus.respLayer18.occupancy            27000                       # Layer occupancy (ticks)
system.tol2bus.respLayer18.utilization            0.0                       # Layer utilization (%)
system.tol2bus.respLayer19.occupancy           148999                       # Layer occupancy (ticks)
system.tol2bus.respLayer19.utilization            0.0                       # Layer utilization (%)
system.tol2bus.respLayer20.occupancy         17031499                       # Layer occupancy (ticks)
system.tol2bus.respLayer20.utilization            0.0                       # Layer utilization (%)
system.tol2bus.respLayer21.occupancy         33033497                       # Layer occupancy (ticks)
system.tol2bus.respLayer21.utilization            0.0                       # Layer utilization (%)
system.tol2bus.respLayer22.occupancy            33000                       # Layer occupancy (ticks)
system.tol2bus.respLayer22.utilization            0.0                       # Layer utilization (%)
system.tol2bus.respLayer23.occupancy           138499                       # Layer occupancy (ticks)
system.tol2bus.respLayer23.utilization            0.0                       # Layer utilization (%)
system.tol2bus.respLayer24.occupancy         10973997                       # Layer occupancy (ticks)
system.tol2bus.respLayer24.utilization            0.0                       # Layer utilization (%)
system.tol2bus.respLayer25.occupancy         10198997                       # Layer occupancy (ticks)
system.tol2bus.respLayer25.utilization            0.0                       # Layer utilization (%)
system.tol2bus.respLayer26.occupancy            90000                       # Layer occupancy (ticks)
system.tol2bus.respLayer26.utilization            0.0                       # Layer utilization (%)
system.tol2bus.respLayer27.occupancy           162000                       # Layer occupancy (ticks)
system.tol2bus.respLayer27.utilization            0.0                       # Layer utilization (%)
system.tol2bus.respLayer28.occupancy         17057498                       # Layer occupancy (ticks)
system.tol2bus.respLayer28.utilization            0.0                       # Layer utilization (%)
system.tol2bus.respLayer29.occupancy         34516499                       # Layer occupancy (ticks)
system.tol2bus.respLayer29.utilization            0.0                       # Layer utilization (%)
system.tol2bus.respLayer30.occupancy            27000                       # Layer occupancy (ticks)
system.tol2bus.respLayer30.utilization            0.0                       # Layer utilization (%)
system.tol2bus.respLayer31.occupancy           132000                       # Layer occupancy (ticks)
system.tol2bus.respLayer31.utilization            0.0                       # Layer utilization (%)

---------- End Simulation Statistics   ----------
