
---------- Begin Simulation Statistics ----------
sim_seconds                                  4.800198                       # Number of seconds simulated
sim_ticks                                4800197583000                       # Number of ticks simulated
final_tick                               4800197583000                       # Number of ticks from beginning of simulation (restored from checkpoints and never reset)
sim_freq                                 1000000000000                       # Frequency of simulated ticks
host_inst_rate                                1487265                       # Simulator instruction rate (inst/s)
host_op_rate                                  3214513                       # Simulator op (including micro ops) rate (op/s)
host_tick_rate                            14451534285                       # Simulator tick rate (ticks/s)
host_mem_usage                                1808720                       # Number of bytes of host memory used
host_seconds                                   332.16                       # Real time elapsed on the host
sim_insts                                   494007439                       # Number of instructions simulated
sim_ops                                    1067727159                       # Number of ops (including micro ops) simulated
system.voltage_domain.voltage                       1                       # Voltage in Volts
system.clk_domain.clock                          1000                       # Clock period in ticks
system.mem_ctrls.pwrStateResidencyTicks::UNDEFINED 4800197583000                       # Cumulative time (in ticks) in various power states
system.mem_ctrls.bytes_read::cpu0.dtb.walker         1536                       # Number of bytes read from this memory
system.mem_ctrls.bytes_read::cpu0.itb.walker          256                       # Number of bytes read from this memory
system.mem_ctrls.bytes_read::cpu0.inst         734720                       # Number of bytes read from this memory
system.mem_ctrls.bytes_read::cpu0.data       45962496                       # Number of bytes read from this memory
system.mem_ctrls.bytes_read::cpu1.dtb.walker          128                       # Number of bytes read from this memory
system.mem_ctrls.bytes_read::cpu1.itb.walker          256                       # Number of bytes read from this memory
system.mem_ctrls.bytes_read::cpu1.inst         138432                       # Number of bytes read from this memory
system.mem_ctrls.bytes_read::cpu1.data        2988864                       # Number of bytes read from this memory
system.mem_ctrls.bytes_read::cpu2.dtb.walker          256                       # Number of bytes read from this memory
system.mem_ctrls.bytes_read::cpu2.inst          18816                       # Number of bytes read from this memory
system.mem_ctrls.bytes_read::cpu2.data         115328                       # Number of bytes read from this memory
system.mem_ctrls.bytes_read::cpu3.dtb.walker           64                       # Number of bytes read from this memory
system.mem_ctrls.bytes_read::cpu3.inst          50688                       # Number of bytes read from this memory
system.mem_ctrls.bytes_read::cpu3.data         337216                       # Number of bytes read from this memory
system.mem_ctrls.bytes_read::cpu4.dtb.walker          256                       # Number of bytes read from this memory
system.mem_ctrls.bytes_read::cpu4.inst         112576                       # Number of bytes read from this memory
system.mem_ctrls.bytes_read::cpu4.data         675456                       # Number of bytes read from this memory
system.mem_ctrls.bytes_read::cpu5.dtb.walker          256                       # Number of bytes read from this memory
system.mem_ctrls.bytes_read::cpu5.inst          55488                       # Number of bytes read from this memory
system.mem_ctrls.bytes_read::cpu5.data         613184                       # Number of bytes read from this memory
system.mem_ctrls.bytes_read::cpu6.dtb.walker           64                       # Number of bytes read from this memory
system.mem_ctrls.bytes_read::cpu6.inst         169984                       # Number of bytes read from this memory
system.mem_ctrls.bytes_read::cpu6.data         570112                       # Number of bytes read from this memory
system.mem_ctrls.bytes_read::cpu7.dtb.walker          256                       # Number of bytes read from this memory
system.mem_ctrls.bytes_read::cpu7.inst          34752                       # Number of bytes read from this memory
system.mem_ctrls.bytes_read::cpu7.data         204480                       # Number of bytes read from this memory
system.mem_ctrls.bytes_read::pc.south_bridge.ide        11200                       # Number of bytes read from this memory
system.mem_ctrls.bytes_read::total           52797120                       # Number of bytes read from this memory
system.mem_ctrls.bytes_inst_read::cpu0.inst       734720                       # Number of instructions bytes read from this memory
system.mem_ctrls.bytes_inst_read::cpu1.inst       138432                       # Number of instructions bytes read from this memory
system.mem_ctrls.bytes_inst_read::cpu2.inst        18816                       # Number of instructions bytes read from this memory
system.mem_ctrls.bytes_inst_read::cpu3.inst        50688                       # Number of instructions bytes read from this memory
system.mem_ctrls.bytes_inst_read::cpu4.inst       112576                       # Number of instructions bytes read from this memory
system.mem_ctrls.bytes_inst_read::cpu5.inst        55488                       # Number of instructions bytes read from this memory
system.mem_ctrls.bytes_inst_read::cpu6.inst       169984                       # Number of instructions bytes read from this memory
system.mem_ctrls.bytes_inst_read::cpu7.inst        34752                       # Number of instructions bytes read from this memory
system.mem_ctrls.bytes_inst_read::total       1315456                       # Number of instructions bytes read from this memory
system.mem_ctrls.bytes_written::writebacks     50097408                       # Number of bytes written to this memory
system.mem_ctrls.bytes_written::total        50097408                       # Number of bytes written to this memory
system.mem_ctrls.num_reads::cpu0.dtb.walker           24                       # Number of read requests responded to by this memory
system.mem_ctrls.num_reads::cpu0.itb.walker            4                       # Number of read requests responded to by this memory
system.mem_ctrls.num_reads::cpu0.inst           11480                       # Number of read requests responded to by this memory
system.mem_ctrls.num_reads::cpu0.data          718164                       # Number of read requests responded to by this memory
system.mem_ctrls.num_reads::cpu1.dtb.walker            2                       # Number of read requests responded to by this memory
system.mem_ctrls.num_reads::cpu1.itb.walker            4                       # Number of read requests responded to by this memory
system.mem_ctrls.num_reads::cpu1.inst            2163                       # Number of read requests responded to by this memory
system.mem_ctrls.num_reads::cpu1.data           46701                       # Number of read requests responded to by this memory
system.mem_ctrls.num_reads::cpu2.dtb.walker            4                       # Number of read requests responded to by this memory
system.mem_ctrls.num_reads::cpu2.inst             294                       # Number of read requests responded to by this memory
system.mem_ctrls.num_reads::cpu2.data            1802                       # Number of read requests responded to by this memory
system.mem_ctrls.num_reads::cpu3.dtb.walker            1                       # Number of read requests responded to by this memory
system.mem_ctrls.num_reads::cpu3.inst             792                       # Number of read requests responded to by this memory
system.mem_ctrls.num_reads::cpu3.data            5269                       # Number of read requests responded to by this memory
system.mem_ctrls.num_reads::cpu4.dtb.walker            4                       # Number of read requests responded to by this memory
system.mem_ctrls.num_reads::cpu4.inst            1759                       # Number of read requests responded to by this memory
system.mem_ctrls.num_reads::cpu4.data           10554                       # Number of read requests responded to by this memory
system.mem_ctrls.num_reads::cpu5.dtb.walker            4                       # Number of read requests responded to by this memory
system.mem_ctrls.num_reads::cpu5.inst             867                       # Number of read requests responded to by this memory
system.mem_ctrls.num_reads::cpu5.data            9581                       # Number of read requests responded to by this memory
system.mem_ctrls.num_reads::cpu6.dtb.walker            1                       # Number of read requests responded to by this memory
system.mem_ctrls.num_reads::cpu6.inst            2656                       # Number of read requests responded to by this memory
system.mem_ctrls.num_reads::cpu6.data            8908                       # Number of read requests responded to by this memory
system.mem_ctrls.num_reads::cpu7.dtb.walker            4                       # Number of read requests responded to by this memory
system.mem_ctrls.num_reads::cpu7.inst             543                       # Number of read requests responded to by this memory
system.mem_ctrls.num_reads::cpu7.data            3195                       # Number of read requests responded to by this memory
system.mem_ctrls.num_reads::pc.south_bridge.ide          175                       # Number of read requests responded to by this memory
system.mem_ctrls.num_reads::total              824955                       # Number of read requests responded to by this memory
system.mem_ctrls.num_writes::writebacks        782772                       # Number of write requests responded to by this memory
system.mem_ctrls.num_writes::total             782772                       # Number of write requests responded to by this memory
system.mem_ctrls.bw_read::cpu0.dtb.walker          320                       # Total read bandwidth from this memory (bytes/s)
system.mem_ctrls.bw_read::cpu0.itb.walker           53                       # Total read bandwidth from this memory (bytes/s)
system.mem_ctrls.bw_read::cpu0.inst            153060                       # Total read bandwidth from this memory (bytes/s)
system.mem_ctrls.bw_read::cpu0.data           9575126                       # Total read bandwidth from this memory (bytes/s)
system.mem_ctrls.bw_read::cpu1.dtb.walker           27                       # Total read bandwidth from this memory (bytes/s)
system.mem_ctrls.bw_read::cpu1.itb.walker           53                       # Total read bandwidth from this memory (bytes/s)
system.mem_ctrls.bw_read::cpu1.inst             28839                       # Total read bandwidth from this memory (bytes/s)
system.mem_ctrls.bw_read::cpu1.data            622654                       # Total read bandwidth from this memory (bytes/s)
system.mem_ctrls.bw_read::cpu2.dtb.walker           53                       # Total read bandwidth from this memory (bytes/s)
system.mem_ctrls.bw_read::cpu2.inst              3920                       # Total read bandwidth from this memory (bytes/s)
system.mem_ctrls.bw_read::cpu2.data             24026                       # Total read bandwidth from this memory (bytes/s)
system.mem_ctrls.bw_read::cpu3.dtb.walker           13                       # Total read bandwidth from this memory (bytes/s)
system.mem_ctrls.bw_read::cpu3.inst             10560                       # Total read bandwidth from this memory (bytes/s)
system.mem_ctrls.bw_read::cpu3.data             70250                       # Total read bandwidth from this memory (bytes/s)
system.mem_ctrls.bw_read::cpu4.dtb.walker           53                       # Total read bandwidth from this memory (bytes/s)
system.mem_ctrls.bw_read::cpu4.inst             23452                       # Total read bandwidth from this memory (bytes/s)
system.mem_ctrls.bw_read::cpu4.data            140714                       # Total read bandwidth from this memory (bytes/s)
system.mem_ctrls.bw_read::cpu5.dtb.walker           53                       # Total read bandwidth from this memory (bytes/s)
system.mem_ctrls.bw_read::cpu5.inst             11560                       # Total read bandwidth from this memory (bytes/s)
system.mem_ctrls.bw_read::cpu5.data            127741                       # Total read bandwidth from this memory (bytes/s)
system.mem_ctrls.bw_read::cpu6.dtb.walker           13                       # Total read bandwidth from this memory (bytes/s)
system.mem_ctrls.bw_read::cpu6.inst             35412                       # Total read bandwidth from this memory (bytes/s)
system.mem_ctrls.bw_read::cpu6.data            118768                       # Total read bandwidth from this memory (bytes/s)
system.mem_ctrls.bw_read::cpu7.dtb.walker           53                       # Total read bandwidth from this memory (bytes/s)
system.mem_ctrls.bw_read::cpu7.inst              7240                       # Total read bandwidth from this memory (bytes/s)
system.mem_ctrls.bw_read::cpu7.data             42598                       # Total read bandwidth from this memory (bytes/s)
system.mem_ctrls.bw_read::pc.south_bridge.ide         2333                       # Total read bandwidth from this memory (bytes/s)
system.mem_ctrls.bw_read::total              10998947                       # Total read bandwidth from this memory (bytes/s)
system.mem_ctrls.bw_inst_read::cpu0.inst       153060                       # Instruction read bandwidth from this memory (bytes/s)
system.mem_ctrls.bw_inst_read::cpu1.inst        28839                       # Instruction read bandwidth from this memory (bytes/s)
system.mem_ctrls.bw_inst_read::cpu2.inst         3920                       # Instruction read bandwidth from this memory (bytes/s)
system.mem_ctrls.bw_inst_read::cpu3.inst        10560                       # Instruction read bandwidth from this memory (bytes/s)
system.mem_ctrls.bw_inst_read::cpu4.inst        23452                       # Instruction read bandwidth from this memory (bytes/s)
system.mem_ctrls.bw_inst_read::cpu5.inst        11560                       # Instruction read bandwidth from this memory (bytes/s)
system.mem_ctrls.bw_inst_read::cpu6.inst        35412                       # Instruction read bandwidth from this memory (bytes/s)
system.mem_ctrls.bw_inst_read::cpu7.inst         7240                       # Instruction read bandwidth from this memory (bytes/s)
system.mem_ctrls.bw_inst_read::total           274042                       # Instruction read bandwidth from this memory (bytes/s)
system.mem_ctrls.bw_write::writebacks        10436530                       # Write bandwidth from this memory (bytes/s)
system.mem_ctrls.bw_write::total             10436530                       # Write bandwidth from this memory (bytes/s)
system.mem_ctrls.bw_total::writebacks        10436530                       # Total bandwidth to/from this memory (bytes/s)
system.mem_ctrls.bw_total::cpu0.dtb.walker          320                       # Total bandwidth to/from this memory (bytes/s)
system.mem_ctrls.bw_total::cpu0.itb.walker           53                       # Total bandwidth to/from this memory (bytes/s)
system.mem_ctrls.bw_total::cpu0.inst           153060                       # Total bandwidth to/from this memory (bytes/s)
system.mem_ctrls.bw_total::cpu0.data          9575126                       # Total bandwidth to/from this memory (bytes/s)
system.mem_ctrls.bw_total::cpu1.dtb.walker           27                       # Total bandwidth to/from this memory (bytes/s)
system.mem_ctrls.bw_total::cpu1.itb.walker           53                       # Total bandwidth to/from this memory (bytes/s)
system.mem_ctrls.bw_total::cpu1.inst            28839                       # Total bandwidth to/from this memory (bytes/s)
system.mem_ctrls.bw_total::cpu1.data           622654                       # Total bandwidth to/from this memory (bytes/s)
system.mem_ctrls.bw_total::cpu2.dtb.walker           53                       # Total bandwidth to/from this memory (bytes/s)
system.mem_ctrls.bw_total::cpu2.inst             3920                       # Total bandwidth to/from this memory (bytes/s)
system.mem_ctrls.bw_total::cpu2.data            24026                       # Total bandwidth to/from this memory (bytes/s)
system.mem_ctrls.bw_total::cpu3.dtb.walker           13                       # Total bandwidth to/from this memory (bytes/s)
system.mem_ctrls.bw_total::cpu3.inst            10560                       # Total bandwidth to/from this memory (bytes/s)
system.mem_ctrls.bw_total::cpu3.data            70250                       # Total bandwidth to/from this memory (bytes/s)
system.mem_ctrls.bw_total::cpu4.dtb.walker           53                       # Total bandwidth to/from this memory (bytes/s)
system.mem_ctrls.bw_total::cpu4.inst            23452                       # Total bandwidth to/from this memory (bytes/s)
system.mem_ctrls.bw_total::cpu4.data           140714                       # Total bandwidth to/from this memory (bytes/s)
system.mem_ctrls.bw_total::cpu5.dtb.walker           53                       # Total bandwidth to/from this memory (bytes/s)
system.mem_ctrls.bw_total::cpu5.inst            11560                       # Total bandwidth to/from this memory (bytes/s)
system.mem_ctrls.bw_total::cpu5.data           127741                       # Total bandwidth to/from this memory (bytes/s)
system.mem_ctrls.bw_total::cpu6.dtb.walker           13                       # Total bandwidth to/from this memory (bytes/s)
system.mem_ctrls.bw_total::cpu6.inst            35412                       # Total bandwidth to/from this memory (bytes/s)
system.mem_ctrls.bw_total::cpu6.data           118768                       # Total bandwidth to/from this memory (bytes/s)
system.mem_ctrls.bw_total::cpu7.dtb.walker           53                       # Total bandwidth to/from this memory (bytes/s)
system.mem_ctrls.bw_total::cpu7.inst             7240                       # Total bandwidth to/from this memory (bytes/s)
system.mem_ctrls.bw_total::cpu7.data            42598                       # Total bandwidth to/from this memory (bytes/s)
system.mem_ctrls.bw_total::pc.south_bridge.ide         2333                       # Total bandwidth to/from this memory (bytes/s)
system.mem_ctrls.bw_total::total             21435478                       # Total bandwidth to/from this memory (bytes/s)
system.mem_ctrls.readReqs                           0                       # Number of read requests accepted
system.mem_ctrls.writeReqs                          0                       # Number of write requests accepted
system.mem_ctrls.readBursts                         0                       # Number of DRAM read bursts, including those serviced by the write queue
system.mem_ctrls.writeBursts                        0                       # Number of DRAM write bursts, including those merged in the write queue
system.mem_ctrls.bytesReadDRAM                      0                       # Total number of bytes read from DRAM
system.mem_ctrls.bytesReadWrQ                       0                       # Total number of bytes read from write queue
system.mem_ctrls.bytesWritten                       0                       # Total number of bytes written to DRAM
system.mem_ctrls.bytesReadSys                       0                       # Total read bytes from the system interface side
system.mem_ctrls.bytesWrittenSys                    0                       # Total written bytes from the system interface side
system.mem_ctrls.servicedByWrQ                      0                       # Number of DRAM read bursts serviced by the write queue
system.mem_ctrls.mergedWrBursts                     0                       # Number of DRAM write bursts merged with an existing one
system.mem_ctrls.neitherReadNorWriteReqs            0                       # Number of requests that are neither read nor write
system.mem_ctrls.perBankRdBursts::0                 0                       # Per bank write bursts
system.mem_ctrls.perBankRdBursts::1                 0                       # Per bank write bursts
system.mem_ctrls.perBankRdBursts::2                 0                       # Per bank write bursts
system.mem_ctrls.perBankRdBursts::3                 0                       # Per bank write bursts
system.mem_ctrls.perBankRdBursts::4                 0                       # Per bank write bursts
system.mem_ctrls.perBankRdBursts::5                 0                       # Per bank write bursts
system.mem_ctrls.perBankRdBursts::6                 0                       # Per bank write bursts
system.mem_ctrls.perBankRdBursts::7                 0                       # Per bank write bursts
system.mem_ctrls.perBankRdBursts::8                 0                       # Per bank write bursts
system.mem_ctrls.perBankRdBursts::9                 0                       # Per bank write bursts
system.mem_ctrls.perBankRdBursts::10                0                       # Per bank write bursts
system.mem_ctrls.perBankRdBursts::11                0                       # Per bank write bursts
system.mem_ctrls.perBankRdBursts::12                0                       # Per bank write bursts
system.mem_ctrls.perBankRdBursts::13                0                       # Per bank write bursts
system.mem_ctrls.perBankRdBursts::14                0                       # Per bank write bursts
system.mem_ctrls.perBankRdBursts::15                0                       # Per bank write bursts
system.mem_ctrls.perBankWrBursts::0                 0                       # Per bank write bursts
system.mem_ctrls.perBankWrBursts::1                 0                       # Per bank write bursts
system.mem_ctrls.perBankWrBursts::2                 0                       # Per bank write bursts
system.mem_ctrls.perBankWrBursts::3                 0                       # Per bank write bursts
system.mem_ctrls.perBankWrBursts::4                 0                       # Per bank write bursts
system.mem_ctrls.perBankWrBursts::5                 0                       # Per bank write bursts
system.mem_ctrls.perBankWrBursts::6                 0                       # Per bank write bursts
system.mem_ctrls.perBankWrBursts::7                 0                       # Per bank write bursts
system.mem_ctrls.perBankWrBursts::8                 0                       # Per bank write bursts
system.mem_ctrls.perBankWrBursts::9                 0                       # Per bank write bursts
system.mem_ctrls.perBankWrBursts::10                0                       # Per bank write bursts
system.mem_ctrls.perBankWrBursts::11                0                       # Per bank write bursts
system.mem_ctrls.perBankWrBursts::12                0                       # Per bank write bursts
system.mem_ctrls.perBankWrBursts::13                0                       # Per bank write bursts
system.mem_ctrls.perBankWrBursts::14                0                       # Per bank write bursts
system.mem_ctrls.perBankWrBursts::15                0                       # Per bank write bursts
system.mem_ctrls.numRdRetry                         0                       # Number of times read queue was full causing retry
system.mem_ctrls.numWrRetry                         0                       # Number of times write queue was full causing retry
system.mem_ctrls.totGap                             0                       # Total gap between requests
system.mem_ctrls.readPktSize::0                     0                       # Read request sizes (log2)
system.mem_ctrls.readPktSize::1                     0                       # Read request sizes (log2)
system.mem_ctrls.readPktSize::2                     0                       # Read request sizes (log2)
system.mem_ctrls.readPktSize::3                     0                       # Read request sizes (log2)
system.mem_ctrls.readPktSize::4                     0                       # Read request sizes (log2)
system.mem_ctrls.readPktSize::5                     0                       # Read request sizes (log2)
system.mem_ctrls.readPktSize::6                     0                       # Read request sizes (log2)
system.mem_ctrls.writePktSize::0                    0                       # Write request sizes (log2)
system.mem_ctrls.writePktSize::1                    0                       # Write request sizes (log2)
system.mem_ctrls.writePktSize::2                    0                       # Write request sizes (log2)
system.mem_ctrls.writePktSize::3                    0                       # Write request sizes (log2)
system.mem_ctrls.writePktSize::4                    0                       # Write request sizes (log2)
system.mem_ctrls.writePktSize::5                    0                       # Write request sizes (log2)
system.mem_ctrls.writePktSize::6                    0                       # Write request sizes (log2)
system.mem_ctrls.rdQLenPdf::0                       0                       # What read queue length does an incoming req see
system.mem_ctrls.rdQLenPdf::1                       0                       # What read queue length does an incoming req see
system.mem_ctrls.rdQLenPdf::2                       0                       # What read queue length does an incoming req see
system.mem_ctrls.rdQLenPdf::3                       0                       # What read queue length does an incoming req see
system.mem_ctrls.rdQLenPdf::4                       0                       # What read queue length does an incoming req see
system.mem_ctrls.rdQLenPdf::5                       0                       # What read queue length does an incoming req see
system.mem_ctrls.rdQLenPdf::6                       0                       # What read queue length does an incoming req see
system.mem_ctrls.rdQLenPdf::7                       0                       # What read queue length does an incoming req see
system.mem_ctrls.rdQLenPdf::8                       0                       # What read queue length does an incoming req see
system.mem_ctrls.rdQLenPdf::9                       0                       # What read queue length does an incoming req see
system.mem_ctrls.rdQLenPdf::10                      0                       # What read queue length does an incoming req see
system.mem_ctrls.rdQLenPdf::11                      0                       # What read queue length does an incoming req see
system.mem_ctrls.rdQLenPdf::12                      0                       # What read queue length does an incoming req see
system.mem_ctrls.rdQLenPdf::13                      0                       # What read queue length does an incoming req see
system.mem_ctrls.rdQLenPdf::14                      0                       # What read queue length does an incoming req see
system.mem_ctrls.rdQLenPdf::15                      0                       # What read queue length does an incoming req see
system.mem_ctrls.rdQLenPdf::16                      0                       # What read queue length does an incoming req see
system.mem_ctrls.rdQLenPdf::17                      0                       # What read queue length does an incoming req see
system.mem_ctrls.rdQLenPdf::18                      0                       # What read queue length does an incoming req see
system.mem_ctrls.rdQLenPdf::19                      0                       # What read queue length does an incoming req see
system.mem_ctrls.rdQLenPdf::20                      0                       # What read queue length does an incoming req see
system.mem_ctrls.rdQLenPdf::21                      0                       # What read queue length does an incoming req see
system.mem_ctrls.rdQLenPdf::22                      0                       # What read queue length does an incoming req see
system.mem_ctrls.rdQLenPdf::23                      0                       # What read queue length does an incoming req see
system.mem_ctrls.rdQLenPdf::24                      0                       # What read queue length does an incoming req see
system.mem_ctrls.rdQLenPdf::25                      0                       # What read queue length does an incoming req see
system.mem_ctrls.rdQLenPdf::26                      0                       # What read queue length does an incoming req see
system.mem_ctrls.rdQLenPdf::27                      0                       # What read queue length does an incoming req see
system.mem_ctrls.rdQLenPdf::28                      0                       # What read queue length does an incoming req see
system.mem_ctrls.rdQLenPdf::29                      0                       # What read queue length does an incoming req see
system.mem_ctrls.rdQLenPdf::30                      0                       # What read queue length does an incoming req see
system.mem_ctrls.rdQLenPdf::31                      0                       # What read queue length does an incoming req see
system.mem_ctrls.wrQLenPdf::0                       0                       # What write queue length does an incoming req see
system.mem_ctrls.wrQLenPdf::1                       0                       # What write queue length does an incoming req see
system.mem_ctrls.wrQLenPdf::2                       0                       # What write queue length does an incoming req see
system.mem_ctrls.wrQLenPdf::3                       0                       # What write queue length does an incoming req see
system.mem_ctrls.wrQLenPdf::4                       0                       # What write queue length does an incoming req see
system.mem_ctrls.wrQLenPdf::5                       0                       # What write queue length does an incoming req see
system.mem_ctrls.wrQLenPdf::6                       0                       # What write queue length does an incoming req see
system.mem_ctrls.wrQLenPdf::7                       0                       # What write queue length does an incoming req see
system.mem_ctrls.wrQLenPdf::8                       0                       # What write queue length does an incoming req see
system.mem_ctrls.wrQLenPdf::9                       0                       # What write queue length does an incoming req see
system.mem_ctrls.wrQLenPdf::10                      0                       # What write queue length does an incoming req see
system.mem_ctrls.wrQLenPdf::11                      0                       # What write queue length does an incoming req see
system.mem_ctrls.wrQLenPdf::12                      0                       # What write queue length does an incoming req see
system.mem_ctrls.wrQLenPdf::13                      0                       # What write queue length does an incoming req see
system.mem_ctrls.wrQLenPdf::14                      0                       # What write queue length does an incoming req see
system.mem_ctrls.wrQLenPdf::15                      0                       # What write queue length does an incoming req see
system.mem_ctrls.wrQLenPdf::16                      0                       # What write queue length does an incoming req see
system.mem_ctrls.wrQLenPdf::17                      0                       # What write queue length does an incoming req see
system.mem_ctrls.wrQLenPdf::18                      0                       # What write queue length does an incoming req see
system.mem_ctrls.wrQLenPdf::19                      0                       # What write queue length does an incoming req see
system.mem_ctrls.wrQLenPdf::20                      0                       # What write queue length does an incoming req see
system.mem_ctrls.wrQLenPdf::21                      0                       # What write queue length does an incoming req see
system.mem_ctrls.wrQLenPdf::22                      0                       # What write queue length does an incoming req see
system.mem_ctrls.wrQLenPdf::23                      0                       # What write queue length does an incoming req see
system.mem_ctrls.wrQLenPdf::24                      0                       # What write queue length does an incoming req see
system.mem_ctrls.wrQLenPdf::25                      0                       # What write queue length does an incoming req see
system.mem_ctrls.wrQLenPdf::26                      0                       # What write queue length does an incoming req see
system.mem_ctrls.wrQLenPdf::27                      0                       # What write queue length does an incoming req see
system.mem_ctrls.wrQLenPdf::28                      0                       # What write queue length does an incoming req see
system.mem_ctrls.wrQLenPdf::29                      0                       # What write queue length does an incoming req see
system.mem_ctrls.wrQLenPdf::30                      0                       # What write queue length does an incoming req see
system.mem_ctrls.wrQLenPdf::31                      0                       # What write queue length does an incoming req see
system.mem_ctrls.wrQLenPdf::32                      0                       # What write queue length does an incoming req see
system.mem_ctrls.wrQLenPdf::33                      0                       # What write queue length does an incoming req see
system.mem_ctrls.wrQLenPdf::34                      0                       # What write queue length does an incoming req see
system.mem_ctrls.wrQLenPdf::35                      0                       # What write queue length does an incoming req see
system.mem_ctrls.wrQLenPdf::36                      0                       # What write queue length does an incoming req see
system.mem_ctrls.wrQLenPdf::37                      0                       # What write queue length does an incoming req see
system.mem_ctrls.wrQLenPdf::38                      0                       # What write queue length does an incoming req see
system.mem_ctrls.wrQLenPdf::39                      0                       # What write queue length does an incoming req see
system.mem_ctrls.wrQLenPdf::40                      0                       # What write queue length does an incoming req see
system.mem_ctrls.wrQLenPdf::41                      0                       # What write queue length does an incoming req see
system.mem_ctrls.wrQLenPdf::42                      0                       # What write queue length does an incoming req see
system.mem_ctrls.wrQLenPdf::43                      0                       # What write queue length does an incoming req see
system.mem_ctrls.wrQLenPdf::44                      0                       # What write queue length does an incoming req see
system.mem_ctrls.wrQLenPdf::45                      0                       # What write queue length does an incoming req see
system.mem_ctrls.wrQLenPdf::46                      0                       # What write queue length does an incoming req see
system.mem_ctrls.wrQLenPdf::47                      0                       # What write queue length does an incoming req see
system.mem_ctrls.wrQLenPdf::48                      0                       # What write queue length does an incoming req see
system.mem_ctrls.wrQLenPdf::49                      0                       # What write queue length does an incoming req see
system.mem_ctrls.wrQLenPdf::50                      0                       # What write queue length does an incoming req see
system.mem_ctrls.wrQLenPdf::51                      0                       # What write queue length does an incoming req see
system.mem_ctrls.wrQLenPdf::52                      0                       # What write queue length does an incoming req see
system.mem_ctrls.wrQLenPdf::53                      0                       # What write queue length does an incoming req see
system.mem_ctrls.wrQLenPdf::54                      0                       # What write queue length does an incoming req see
system.mem_ctrls.wrQLenPdf::55                      0                       # What write queue length does an incoming req see
system.mem_ctrls.wrQLenPdf::56                      0                       # What write queue length does an incoming req see
system.mem_ctrls.wrQLenPdf::57                      0                       # What write queue length does an incoming req see
system.mem_ctrls.wrQLenPdf::58                      0                       # What write queue length does an incoming req see
system.mem_ctrls.wrQLenPdf::59                      0                       # What write queue length does an incoming req see
system.mem_ctrls.wrQLenPdf::60                      0                       # What write queue length does an incoming req see
system.mem_ctrls.wrQLenPdf::61                      0                       # What write queue length does an incoming req see
system.mem_ctrls.wrQLenPdf::62                      0                       # What write queue length does an incoming req see
system.mem_ctrls.wrQLenPdf::63                      0                       # What write queue length does an incoming req see
system.mem_ctrls.totQLat                            0                       # Total ticks spent queuing
system.mem_ctrls.totMemAccLat                       0                       # Total ticks spent from burst creation until serviced by the DRAM
system.mem_ctrls.totBusLat                          0                       # Total ticks spent in databus transfers
system.mem_ctrls.avgQLat                          nan                       # Average queueing delay per DRAM burst
system.mem_ctrls.avgBusLat                        nan                       # Average bus latency per DRAM burst
system.mem_ctrls.avgMemAccLat                     nan                       # Average memory access latency per DRAM burst
system.mem_ctrls.avgRdBW                         0.00                       # Average DRAM read bandwidth in MiByte/s
system.mem_ctrls.avgWrBW                         0.00                       # Average achieved write bandwidth in MiByte/s
system.mem_ctrls.avgRdBWSys                      0.00                       # Average system read bandwidth in MiByte/s
system.mem_ctrls.avgWrBWSys                      0.00                       # Average system write bandwidth in MiByte/s
system.mem_ctrls.peakBW                      12800.00                       # Theoretical peak bandwidth in MiByte/s
system.mem_ctrls.busUtil                         0.00                       # Data bus utilization in percentage
system.mem_ctrls.busUtilRead                     0.00                       # Data bus utilization in percentage for reads
system.mem_ctrls.busUtilWrite                    0.00                       # Data bus utilization in percentage for writes
system.mem_ctrls.avgRdQLen                       0.00                       # Average read queue length when enqueuing
system.mem_ctrls.avgWrQLen                       0.00                       # Average write queue length when enqueuing
system.mem_ctrls.readRowHits                        0                       # Number of row buffer hits during reads
system.mem_ctrls.writeRowHits                       0                       # Number of row buffer hits during writes
system.mem_ctrls.readRowHitRate                   nan                       # Row buffer hit rate for reads
system.mem_ctrls.writeRowHitRate                  nan                       # Row buffer hit rate for writes
system.mem_ctrls.avgGap                           nan                       # Average gap between requests
system.mem_ctrls.pageHitRate                      nan                       # Row buffer hit rate, read and write combined
system.mem_ctrls_0.actEnergy                        0                       # Energy for activate commands per rank (pJ)
system.mem_ctrls_0.preEnergy                        0                       # Energy for precharge commands per rank (pJ)
system.mem_ctrls_0.readEnergy                       0                       # Energy for read commands per rank (pJ)
system.mem_ctrls_0.writeEnergy                      0                       # Energy for write commands per rank (pJ)
system.mem_ctrls_0.refreshEnergy                    0                       # Energy for refresh commands per rank (pJ)
system.mem_ctrls_0.actBackEnergy                    0                       # Energy for active background per rank (pJ)
system.mem_ctrls_0.preBackEnergy         1843275872160                       # Energy for precharge background per rank (pJ)
system.mem_ctrls_0.actPowerDownEnergy               0                       # Energy for active power-down per rank (pJ)
system.mem_ctrls_0.prePowerDownEnergy               0                       # Energy for precharge power-down per rank (pJ)
system.mem_ctrls_0.selfRefreshEnergy                0                       # Energy for self refresh per rank (pJ)
system.mem_ctrls_0.totalEnergy           1843275872160                       # Total energy per rank (pJ)
system.mem_ctrls_0.averagePower            384.000000                       # Core power per rank (mW)
system.mem_ctrls_0.totalIdleTime                    0                       # Total Idle time Per DRAM Rank
system.mem_ctrls_0.memoryStateTime::IDLE 4800197583000                       # Time in different power states
system.mem_ctrls_0.memoryStateTime::REF             0                       # Time in different power states
system.mem_ctrls_0.memoryStateTime::SREF            0                       # Time in different power states
system.mem_ctrls_0.memoryStateTime::PRE_PDN            0                       # Time in different power states
system.mem_ctrls_0.memoryStateTime::ACT             0                       # Time in different power states
system.mem_ctrls_0.memoryStateTime::ACT_PDN            0                       # Time in different power states
system.mem_ctrls_1.actEnergy                        0                       # Energy for activate commands per rank (pJ)
system.mem_ctrls_1.preEnergy                        0                       # Energy for precharge commands per rank (pJ)
system.mem_ctrls_1.readEnergy                       0                       # Energy for read commands per rank (pJ)
system.mem_ctrls_1.writeEnergy                      0                       # Energy for write commands per rank (pJ)
system.mem_ctrls_1.refreshEnergy                    0                       # Energy for refresh commands per rank (pJ)
system.mem_ctrls_1.actBackEnergy                    0                       # Energy for active background per rank (pJ)
system.mem_ctrls_1.preBackEnergy         1843275872160                       # Energy for precharge background per rank (pJ)
system.mem_ctrls_1.actPowerDownEnergy               0                       # Energy for active power-down per rank (pJ)
system.mem_ctrls_1.prePowerDownEnergy               0                       # Energy for precharge power-down per rank (pJ)
system.mem_ctrls_1.selfRefreshEnergy                0                       # Energy for self refresh per rank (pJ)
system.mem_ctrls_1.totalEnergy           1843275872160                       # Total energy per rank (pJ)
system.mem_ctrls_1.averagePower            384.000000                       # Core power per rank (mW)
system.mem_ctrls_1.totalIdleTime                    0                       # Total Idle time Per DRAM Rank
system.mem_ctrls_1.memoryStateTime::IDLE 4800197583000                       # Time in different power states
system.mem_ctrls_1.memoryStateTime::REF             0                       # Time in different power states
system.mem_ctrls_1.memoryStateTime::SREF            0                       # Time in different power states
system.mem_ctrls_1.memoryStateTime::PRE_PDN            0                       # Time in different power states
system.mem_ctrls_1.memoryStateTime::ACT             0                       # Time in different power states
system.mem_ctrls_1.memoryStateTime::ACT_PDN            0                       # Time in different power states
system.pwrStateResidencyTicks::UNDEFINED 4800197583000                       # Cumulative time (in ticks) in various power states
system.apicbridge.pwrStateResidencyTicks::UNDEFINED 4800197583000                       # Cumulative time (in ticks) in various power states
system.bridge.pwrStateResidencyTicks::UNDEFINED 4800197583000                       # Cumulative time (in ticks) in various power states
system.cpu_voltage_domain.voltage                   1                       # Voltage in Volts
system.cpu_clk_domain.clock                       500                       # Clock period in ticks
system.cpu0.dtb.walker.pwrStateResidencyTicks::UNDEFINED 4800197583000                       # Cumulative time (in ticks) in various power states
system.cpu0.dtb.rdAccesses                   75875756                       # TLB accesses on read requests
system.cpu0.dtb.wrAccesses                   36482879                       # TLB accesses on write requests
system.cpu0.dtb.rdMisses                          324                       # TLB misses on read requests
system.cpu0.dtb.wrMisses                           81                       # TLB misses on write requests
system.cpu0.apic_clk_domain.clock                8000                       # Clock period in ticks
system.cpu0.interrupts.pwrStateResidencyTicks::UNDEFINED 4800197583000                       # Cumulative time (in ticks) in various power states
system.cpu0.itb.walker.pwrStateResidencyTicks::UNDEFINED 4800197583000                       # Cumulative time (in ticks) in various power states
system.cpu0.itb.rdAccesses                          0                       # TLB accesses on read requests
system.cpu0.itb.wrAccesses                  570322103                       # TLB accesses on write requests
system.cpu0.itb.rdMisses                            0                       # TLB misses on read requests
system.cpu0.itb.wrMisses                          233                       # TLB misses on write requests
system.cpu0.numPwrStateTransitions               4501                       # Number of power state transitions
system.cpu0.pwrStateClkGateDist::samples         2251                       # Distribution of time spent in the clock gated state
system.cpu0.pwrStateClkGateDist::mean    1890664781.471790                       # Distribution of time spent in the clock gated state
system.cpu0.pwrStateClkGateDist::stdev   1979968723.976896                       # Distribution of time spent in the clock gated state
system.cpu0.pwrStateClkGateDist::1000-5e+10         2251    100.00%    100.00% # Distribution of time spent in the clock gated state
system.cpu0.pwrStateClkGateDist::min_value        75500                       # Distribution of time spent in the clock gated state
system.cpu0.pwrStateClkGateDist::max_value   3997079500                       # Distribution of time spent in the clock gated state
system.cpu0.pwrStateClkGateDist::total           2251                       # Distribution of time spent in the clock gated state
system.cpu0.pwrStateResidencyTicks::ON   544311159907                       # Cumulative time (in ticks) in various power states
system.cpu0.pwrStateResidencyTicks::CLK_GATED 4255886423093                       # Cumulative time (in ticks) in various power states
system.cpu0.numCycles                      9601018164                       # number of cpu cycles simulated
system.cpu0.numWorkItemsStarted                     0                       # number of work items this cpu started
system.cpu0.numWorkItemsCompleted                   0                       # number of work items this cpu completed
system.cpu0.kern.inst.arm                           0                       # number of arm instructions executed
system.cpu0.kern.inst.quiesce                       0                       # number of quiesce instructions executed
system.cpu0.committedInsts                  443661369                       # Number of instructions committed
system.cpu0.committedOps                    962735325                       # Number of ops (including micro ops) committed
system.cpu0.num_int_alu_accesses            869507853                       # Number of integer alu accesses
system.cpu0.num_fp_alu_accesses                  2211                       # Number of float alu accesses
system.cpu0.num_vec_alu_accesses                    0                       # Number of vector alu accesses
system.cpu0.num_func_calls                    3431269                       # number of times a function call or return occured
system.cpu0.num_conditional_control_insts    105555712                       # number of instructions that are conditional controls
system.cpu0.num_int_insts                   869507853                       # number of integer instructions
system.cpu0.num_fp_insts                         2211                       # number of float instructions
system.cpu0.num_vec_insts                           0                       # number of vector instructions
system.cpu0.num_int_register_reads         1502859211                       # number of times the integer registers were read
system.cpu0.num_int_register_writes         710129517                       # number of times the integer registers were written
system.cpu0.num_fp_register_reads                3541                       # number of times the floating registers were read
system.cpu0.num_fp_register_writes               1657                       # number of times the floating registers were written
system.cpu0.num_vec_register_reads                  0                       # number of times the vector registers were read
system.cpu0.num_vec_register_writes                 0                       # number of times the vector registers were written
system.cpu0.num_cc_register_reads           591729888                       # number of times the CC registers were read
system.cpu0.num_cc_register_writes          321853490                       # number of times the CC registers were written
system.cpu0.num_mem_refs                    112454449                       # number of memory refs
system.cpu0.num_load_insts                   75949900                       # Number of load instructions
system.cpu0.num_store_insts                  36504549                       # Number of store instructions
system.cpu0.num_idle_cycles              8512325200.268318                       # Number of idle cycles
system.cpu0.num_busy_cycles              1088692963.731682                       # Number of busy cycles
system.cpu0.not_idle_fraction                0.113393                       # Percentage of non-idle cycles
system.cpu0.idle_fraction                    0.886607                       # Percentage of idle cycles
system.cpu0.Branches                        145596679                       # Number of branches fetched
system.cpu0.op_class::No_OpClass             22591500      2.35%      2.35% # Class of executed instruction
system.cpu0.op_class::IntAlu                827280172     85.93%     88.28% # Class of executed instruction
system.cpu0.op_class::IntMult                  269582      0.03%     88.30% # Class of executed instruction
system.cpu0.op_class::IntDiv                   140410      0.01%     88.32% # Class of executed instruction
system.cpu0.op_class::FloatAdd                   1464      0.00%     88.32% # Class of executed instruction
system.cpu0.op_class::FloatCmp                      0      0.00%     88.32% # Class of executed instruction
system.cpu0.op_class::FloatCvt                     16      0.00%     88.32% # Class of executed instruction
system.cpu0.op_class::FloatMult                     0      0.00%     88.32% # Class of executed instruction
system.cpu0.op_class::FloatMultAcc                  0      0.00%     88.32% # Class of executed instruction
system.cpu0.op_class::FloatDiv                      0      0.00%     88.32% # Class of executed instruction
system.cpu0.op_class::FloatMisc                     0      0.00%     88.32% # Class of executed instruction
system.cpu0.op_class::FloatSqrt                     0      0.00%     88.32% # Class of executed instruction
system.cpu0.op_class::SimdAdd                       0      0.00%     88.32% # Class of executed instruction
system.cpu0.op_class::SimdAddAcc                    0      0.00%     88.32% # Class of executed instruction
system.cpu0.op_class::SimdAlu                       0      0.00%     88.32% # Class of executed instruction
system.cpu0.op_class::SimdCmp                       0      0.00%     88.32% # Class of executed instruction
system.cpu0.op_class::SimdCvt                       0      0.00%     88.32% # Class of executed instruction
system.cpu0.op_class::SimdMisc                      0      0.00%     88.32% # Class of executed instruction
system.cpu0.op_class::SimdMult                      0      0.00%     88.32% # Class of executed instruction
system.cpu0.op_class::SimdMultAcc                   0      0.00%     88.32% # Class of executed instruction
system.cpu0.op_class::SimdShift                     0      0.00%     88.32% # Class of executed instruction
system.cpu0.op_class::SimdShiftAcc                  0      0.00%     88.32% # Class of executed instruction
system.cpu0.op_class::SimdSqrt                      0      0.00%     88.32% # Class of executed instruction
system.cpu0.op_class::SimdFloatAdd                  0      0.00%     88.32% # Class of executed instruction
system.cpu0.op_class::SimdFloatAlu                  0      0.00%     88.32% # Class of executed instruction
system.cpu0.op_class::SimdFloatCmp                  0      0.00%     88.32% # Class of executed instruction
system.cpu0.op_class::SimdFloatCvt                  0      0.00%     88.32% # Class of executed instruction
system.cpu0.op_class::SimdFloatDiv                  0      0.00%     88.32% # Class of executed instruction
system.cpu0.op_class::SimdFloatMisc                 0      0.00%     88.32% # Class of executed instruction
system.cpu0.op_class::SimdFloatMult                 0      0.00%     88.32% # Class of executed instruction
system.cpu0.op_class::SimdFloatMultAcc              0      0.00%     88.32% # Class of executed instruction
system.cpu0.op_class::SimdFloatSqrt                 0      0.00%     88.32% # Class of executed instruction
system.cpu0.op_class::MemRead                75947265      7.89%     96.21% # Class of executed instruction
system.cpu0.op_class::MemWrite               36504405      3.79%    100.00% # Class of executed instruction
system.cpu0.op_class::FloatMemRead                384      0.00%    100.00% # Class of executed instruction
system.cpu0.op_class::FloatMemWrite               144      0.00%    100.00% # Class of executed instruction
system.cpu0.op_class::IprAccess                     0      0.00%    100.00% # Class of executed instruction
system.cpu0.op_class::InstPrefetch                  0      0.00%    100.00% # Class of executed instruction
system.cpu0.op_class::total                 962735342                       # Class of executed instruction
system.cpu0.dcache.tags.pwrStateResidencyTicks::UNDEFINED 4800197583000                       # Cumulative time (in ticks) in various power states
system.cpu0.dcache.tags.replacements          1048527                       # number of replacements
system.cpu0.dcache.tags.tagsinuse          986.042596                       # Cycle average of tags in use
system.cpu0.dcache.tags.total_refs          109408919                       # Total number of references to valid blocks.
system.cpu0.dcache.tags.sampled_refs          1049358                       # Sample count of references to valid blocks.
system.cpu0.dcache.tags.avg_refs           104.262720                       # Average number of references to valid blocks.
system.cpu0.dcache.tags.warmup_cycle            12000                       # Cycle when the warmup percentage was hit.
system.cpu0.dcache.tags.occ_blocks::cpu0.data   986.042596                       # Average occupied blocks per requestor
system.cpu0.dcache.tags.occ_percent::cpu0.data     0.962932                       # Average percentage of cache occupancy
system.cpu0.dcache.tags.occ_percent::total     0.962932                       # Average percentage of cache occupancy
system.cpu0.dcache.tags.occ_task_id_blocks::1024          831                       # Occupied blocks per task id
system.cpu0.dcache.tags.age_task_id_blocks_1024::1            7                       # Occupied blocks per task id
system.cpu0.dcache.tags.age_task_id_blocks_1024::2          583                       # Occupied blocks per task id
system.cpu0.dcache.tags.age_task_id_blocks_1024::3          214                       # Occupied blocks per task id
system.cpu0.dcache.tags.age_task_id_blocks_1024::4           27                       # Occupied blocks per task id
system.cpu0.dcache.tags.occ_task_id_percent::1024     0.811523                       # Percentage of cache occupancy per task id
system.cpu0.dcache.tags.tag_accesses        225864266                       # Number of tag accesses
system.cpu0.dcache.tags.data_accesses       225864266                       # Number of data accesses
system.cpu0.dcache.pwrStateResidencyTicks::UNDEFINED 4800197583000                       # Cumulative time (in ticks) in various power states
system.cpu0.dcache.ReadReq_hits::cpu0.data     75319310                       # number of ReadReq hits
system.cpu0.dcache.ReadReq_hits::total       75319310                       # number of ReadReq hits
system.cpu0.dcache.WriteReq_hits::cpu0.data     35784316                       # number of WriteReq hits
system.cpu0.dcache.WriteReq_hits::total      35784316                       # number of WriteReq hits
system.cpu0.dcache.SoftPFReq_hits::cpu0.data        28168                       # number of SoftPFReq hits
system.cpu0.dcache.SoftPFReq_hits::total        28168                       # number of SoftPFReq hits
system.cpu0.dcache.demand_hits::cpu0.data    111103626                       # number of demand (read+write) hits
system.cpu0.dcache.demand_hits::total       111103626                       # number of demand (read+write) hits
system.cpu0.dcache.overall_hits::cpu0.data    111131794                       # number of overall hits
system.cpu0.dcache.overall_hits::total      111131794                       # number of overall hits
system.cpu0.dcache.ReadReq_misses::cpu0.data       389528                       # number of ReadReq misses
system.cpu0.dcache.ReadReq_misses::total       389528                       # number of ReadReq misses
system.cpu0.dcache.WriteReq_misses::cpu0.data       694763                       # number of WriteReq misses
system.cpu0.dcache.WriteReq_misses::total       694763                       # number of WriteReq misses
system.cpu0.dcache.SoftPFReq_misses::cpu0.data       135851                       # number of SoftPFReq misses
system.cpu0.dcache.SoftPFReq_misses::total       135851                       # number of SoftPFReq misses
system.cpu0.dcache.demand_misses::cpu0.data      1084291                       # number of demand (read+write) misses
system.cpu0.dcache.demand_misses::total       1084291                       # number of demand (read+write) misses
system.cpu0.dcache.overall_misses::cpu0.data      1220142                       # number of overall misses
system.cpu0.dcache.overall_misses::total      1220142                       # number of overall misses
system.cpu0.dcache.ReadReq_accesses::cpu0.data     75708838                       # number of ReadReq accesses(hits+misses)
system.cpu0.dcache.ReadReq_accesses::total     75708838                       # number of ReadReq accesses(hits+misses)
system.cpu0.dcache.WriteReq_accesses::cpu0.data     36479079                       # number of WriteReq accesses(hits+misses)
system.cpu0.dcache.WriteReq_accesses::total     36479079                       # number of WriteReq accesses(hits+misses)
system.cpu0.dcache.SoftPFReq_accesses::cpu0.data       164019                       # number of SoftPFReq accesses(hits+misses)
system.cpu0.dcache.SoftPFReq_accesses::total       164019                       # number of SoftPFReq accesses(hits+misses)
system.cpu0.dcache.demand_accesses::cpu0.data    112187917                       # number of demand (read+write) accesses
system.cpu0.dcache.demand_accesses::total    112187917                       # number of demand (read+write) accesses
system.cpu0.dcache.overall_accesses::cpu0.data    112351936                       # number of overall (read+write) accesses
system.cpu0.dcache.overall_accesses::total    112351936                       # number of overall (read+write) accesses
system.cpu0.dcache.ReadReq_miss_rate::cpu0.data     0.005145                       # miss rate for ReadReq accesses
system.cpu0.dcache.ReadReq_miss_rate::total     0.005145                       # miss rate for ReadReq accesses
system.cpu0.dcache.WriteReq_miss_rate::cpu0.data     0.019046                       # miss rate for WriteReq accesses
system.cpu0.dcache.WriteReq_miss_rate::total     0.019046                       # miss rate for WriteReq accesses
system.cpu0.dcache.SoftPFReq_miss_rate::cpu0.data     0.828264                       # miss rate for SoftPFReq accesses
system.cpu0.dcache.SoftPFReq_miss_rate::total     0.828264                       # miss rate for SoftPFReq accesses
system.cpu0.dcache.demand_miss_rate::cpu0.data     0.009665                       # miss rate for demand accesses
system.cpu0.dcache.demand_miss_rate::total     0.009665                       # miss rate for demand accesses
system.cpu0.dcache.overall_miss_rate::cpu0.data     0.010860                       # miss rate for overall accesses
system.cpu0.dcache.overall_miss_rate::total     0.010860                       # miss rate for overall accesses
system.cpu0.dcache.blocked_cycles::no_mshrs            0                       # number of cycles access was blocked
system.cpu0.dcache.blocked_cycles::no_targets            0                       # number of cycles access was blocked
system.cpu0.dcache.blocked::no_mshrs                0                       # number of cycles access was blocked
system.cpu0.dcache.blocked::no_targets              0                       # number of cycles access was blocked
system.cpu0.dcache.avg_blocked_cycles::no_mshrs          nan                       # average number of cycles each access was blocked
system.cpu0.dcache.avg_blocked_cycles::no_targets          nan                       # average number of cycles each access was blocked
system.cpu0.dcache.writebacks::writebacks       895226                       # number of writebacks
system.cpu0.dcache.writebacks::total           895226                       # number of writebacks
system.cpu0.dtb_walker_cache.tags.pwrStateResidencyTicks::UNDEFINED 4800197583000                       # Cumulative time (in ticks) in various power states
system.cpu0.dtb_walker_cache.tags.replacements          583                       # number of replacements
system.cpu0.dtb_walker_cache.tags.tagsinuse    11.715746                       # Cycle average of tags in use
system.cpu0.dtb_walker_cache.tags.total_refs          801                       # Total number of references to valid blocks.
system.cpu0.dtb_walker_cache.tags.sampled_refs          592                       # Sample count of references to valid blocks.
system.cpu0.dtb_walker_cache.tags.avg_refs     1.353041                       # Average number of references to valid blocks.
system.cpu0.dtb_walker_cache.tags.warmup_cycle        12000                       # Cycle when the warmup percentage was hit.
system.cpu0.dtb_walker_cache.tags.occ_blocks::cpu0.dtb.walker    11.715746                       # Average occupied blocks per requestor
system.cpu0.dtb_walker_cache.tags.occ_percent::cpu0.dtb.walker     0.732234                       # Average percentage of cache occupancy
system.cpu0.dtb_walker_cache.tags.occ_percent::total     0.732234                       # Average percentage of cache occupancy
system.cpu0.dtb_walker_cache.tags.occ_task_id_blocks::1024            9                       # Occupied blocks per task id
system.cpu0.dtb_walker_cache.tags.age_task_id_blocks_1024::2            5                       # Occupied blocks per task id
system.cpu0.dtb_walker_cache.tags.age_task_id_blocks_1024::3            3                       # Occupied blocks per task id
system.cpu0.dtb_walker_cache.tags.age_task_id_blocks_1024::4            1                       # Occupied blocks per task id
system.cpu0.dtb_walker_cache.tags.occ_task_id_percent::1024     0.562500                       # Percentage of cache occupancy per task id
system.cpu0.dtb_walker_cache.tags.tag_accesses         3644                       # Number of tag accesses
system.cpu0.dtb_walker_cache.tags.data_accesses         3644                       # Number of data accesses
system.cpu0.dtb_walker_cache.pwrStateResidencyTicks::UNDEFINED 4800197583000                       # Cumulative time (in ticks) in various power states
system.cpu0.dtb_walker_cache.ReadReq_hits::cpu0.dtb.walker          865                       # number of ReadReq hits
system.cpu0.dtb_walker_cache.ReadReq_hits::total          865                       # number of ReadReq hits
system.cpu0.dtb_walker_cache.demand_hits::cpu0.dtb.walker          865                       # number of demand (read+write) hits
system.cpu0.dtb_walker_cache.demand_hits::total          865                       # number of demand (read+write) hits
system.cpu0.dtb_walker_cache.overall_hits::cpu0.dtb.walker          865                       # number of overall hits
system.cpu0.dtb_walker_cache.overall_hits::total          865                       # number of overall hits
system.cpu0.dtb_walker_cache.ReadReq_misses::cpu0.dtb.walker          638                       # number of ReadReq misses
system.cpu0.dtb_walker_cache.ReadReq_misses::total          638                       # number of ReadReq misses
system.cpu0.dtb_walker_cache.demand_misses::cpu0.dtb.walker          638                       # number of demand (read+write) misses
system.cpu0.dtb_walker_cache.demand_misses::total          638                       # number of demand (read+write) misses
system.cpu0.dtb_walker_cache.overall_misses::cpu0.dtb.walker          638                       # number of overall misses
system.cpu0.dtb_walker_cache.overall_misses::total          638                       # number of overall misses
system.cpu0.dtb_walker_cache.ReadReq_accesses::cpu0.dtb.walker         1503                       # number of ReadReq accesses(hits+misses)
system.cpu0.dtb_walker_cache.ReadReq_accesses::total         1503                       # number of ReadReq accesses(hits+misses)
system.cpu0.dtb_walker_cache.demand_accesses::cpu0.dtb.walker         1503                       # number of demand (read+write) accesses
system.cpu0.dtb_walker_cache.demand_accesses::total         1503                       # number of demand (read+write) accesses
system.cpu0.dtb_walker_cache.overall_accesses::cpu0.dtb.walker         1503                       # number of overall (read+write) accesses
system.cpu0.dtb_walker_cache.overall_accesses::total         1503                       # number of overall (read+write) accesses
system.cpu0.dtb_walker_cache.ReadReq_miss_rate::cpu0.dtb.walker     0.424484                       # miss rate for ReadReq accesses
system.cpu0.dtb_walker_cache.ReadReq_miss_rate::total     0.424484                       # miss rate for ReadReq accesses
system.cpu0.dtb_walker_cache.demand_miss_rate::cpu0.dtb.walker     0.424484                       # miss rate for demand accesses
system.cpu0.dtb_walker_cache.demand_miss_rate::total     0.424484                       # miss rate for demand accesses
system.cpu0.dtb_walker_cache.overall_miss_rate::cpu0.dtb.walker     0.424484                       # miss rate for overall accesses
system.cpu0.dtb_walker_cache.overall_miss_rate::total     0.424484                       # miss rate for overall accesses
system.cpu0.dtb_walker_cache.blocked_cycles::no_mshrs            0                       # number of cycles access was blocked
system.cpu0.dtb_walker_cache.blocked_cycles::no_targets            0                       # number of cycles access was blocked
system.cpu0.dtb_walker_cache.blocked::no_mshrs            0                       # number of cycles access was blocked
system.cpu0.dtb_walker_cache.blocked::no_targets            0                       # number of cycles access was blocked
system.cpu0.dtb_walker_cache.avg_blocked_cycles::no_mshrs          nan                       # average number of cycles each access was blocked
system.cpu0.dtb_walker_cache.avg_blocked_cycles::no_targets          nan                       # average number of cycles each access was blocked
system.cpu0.dtb_walker_cache.writebacks::writebacks           48                       # number of writebacks
system.cpu0.dtb_walker_cache.writebacks::total           48                       # number of writebacks
system.cpu0.icache.tags.pwrStateResidencyTicks::UNDEFINED 4800197583000                       # Cumulative time (in ticks) in various power states
system.cpu0.icache.tags.replacements          1010855                       # number of replacements
system.cpu0.icache.tags.tagsinuse          510.723064                       # Cycle average of tags in use
system.cpu0.icache.tags.total_refs          569307080                       # Total number of references to valid blocks.
system.cpu0.icache.tags.sampled_refs          1011367                       # Sample count of references to valid blocks.
system.cpu0.icache.tags.avg_refs           562.908499                       # Average number of references to valid blocks.
system.cpu0.icache.tags.warmup_cycle                0                       # Cycle when the warmup percentage was hit.
system.cpu0.icache.tags.occ_blocks::cpu0.inst   510.723064                       # Average occupied blocks per requestor
system.cpu0.icache.tags.occ_percent::cpu0.inst     0.997506                       # Average percentage of cache occupancy
system.cpu0.icache.tags.occ_percent::total     0.997506                       # Average percentage of cache occupancy
system.cpu0.icache.tags.occ_task_id_blocks::1024          512                       # Occupied blocks per task id
system.cpu0.icache.tags.age_task_id_blocks_1024::1           15                       # Occupied blocks per task id
system.cpu0.icache.tags.age_task_id_blocks_1024::2          438                       # Occupied blocks per task id
system.cpu0.icache.tags.age_task_id_blocks_1024::3           57                       # Occupied blocks per task id
system.cpu0.icache.tags.age_task_id_blocks_1024::4            2                       # Occupied blocks per task id
system.cpu0.icache.tags.occ_task_id_percent::1024            1                       # Percentage of cache occupancy per task id
system.cpu0.icache.tags.tag_accesses       1141655512                       # Number of tag accesses
system.cpu0.icache.tags.data_accesses      1141655512                       # Number of data accesses
system.cpu0.icache.pwrStateResidencyTicks::UNDEFINED 4800197583000                       # Cumulative time (in ticks) in various power states
system.cpu0.icache.ReadReq_hits::cpu0.inst    569310698                       # number of ReadReq hits
system.cpu0.icache.ReadReq_hits::total      569310698                       # number of ReadReq hits
system.cpu0.icache.demand_hits::cpu0.inst    569310698                       # number of demand (read+write) hits
system.cpu0.icache.demand_hits::total       569310698                       # number of demand (read+write) hits
system.cpu0.icache.overall_hits::cpu0.inst    569310698                       # number of overall hits
system.cpu0.icache.overall_hits::total      569310698                       # number of overall hits
system.cpu0.icache.ReadReq_misses::cpu0.inst      1011372                       # number of ReadReq misses
system.cpu0.icache.ReadReq_misses::total      1011372                       # number of ReadReq misses
system.cpu0.icache.demand_misses::cpu0.inst      1011372                       # number of demand (read+write) misses
system.cpu0.icache.demand_misses::total       1011372                       # number of demand (read+write) misses
system.cpu0.icache.overall_misses::cpu0.inst      1011372                       # number of overall misses
system.cpu0.icache.overall_misses::total      1011372                       # number of overall misses
system.cpu0.icache.ReadReq_accesses::cpu0.inst    570322070                       # number of ReadReq accesses(hits+misses)
system.cpu0.icache.ReadReq_accesses::total    570322070                       # number of ReadReq accesses(hits+misses)
system.cpu0.icache.demand_accesses::cpu0.inst    570322070                       # number of demand (read+write) accesses
system.cpu0.icache.demand_accesses::total    570322070                       # number of demand (read+write) accesses
system.cpu0.icache.overall_accesses::cpu0.inst    570322070                       # number of overall (read+write) accesses
system.cpu0.icache.overall_accesses::total    570322070                       # number of overall (read+write) accesses
system.cpu0.icache.ReadReq_miss_rate::cpu0.inst     0.001773                       # miss rate for ReadReq accesses
system.cpu0.icache.ReadReq_miss_rate::total     0.001773                       # miss rate for ReadReq accesses
system.cpu0.icache.demand_miss_rate::cpu0.inst     0.001773                       # miss rate for demand accesses
system.cpu0.icache.demand_miss_rate::total     0.001773                       # miss rate for demand accesses
system.cpu0.icache.overall_miss_rate::cpu0.inst     0.001773                       # miss rate for overall accesses
system.cpu0.icache.overall_miss_rate::total     0.001773                       # miss rate for overall accesses
system.cpu0.icache.blocked_cycles::no_mshrs            0                       # number of cycles access was blocked
system.cpu0.icache.blocked_cycles::no_targets            0                       # number of cycles access was blocked
system.cpu0.icache.blocked::no_mshrs                0                       # number of cycles access was blocked
system.cpu0.icache.blocked::no_targets              0                       # number of cycles access was blocked
system.cpu0.icache.avg_blocked_cycles::no_mshrs          nan                       # average number of cycles each access was blocked
system.cpu0.icache.avg_blocked_cycles::no_targets          nan                       # average number of cycles each access was blocked
system.cpu0.icache.writebacks::writebacks      1010855                       # number of writebacks
system.cpu0.icache.writebacks::total          1010855                       # number of writebacks
system.cpu0.itb_walker_cache.tags.pwrStateResidencyTicks::UNDEFINED 4800197583000                       # Cumulative time (in ticks) in various power states
system.cpu0.itb_walker_cache.tags.replacements          399                       # number of replacements
system.cpu0.itb_walker_cache.tags.tagsinuse     5.000858                       # Cycle average of tags in use
system.cpu0.itb_walker_cache.tags.total_refs          204                       # Total number of references to valid blocks.
system.cpu0.itb_walker_cache.tags.sampled_refs          401                       # Sample count of references to valid blocks.
system.cpu0.itb_walker_cache.tags.avg_refs     0.508728                       # Average number of references to valid blocks.
system.cpu0.itb_walker_cache.tags.warmup_cycle            0                       # Cycle when the warmup percentage was hit.
system.cpu0.itb_walker_cache.tags.occ_blocks::cpu0.itb.walker     5.000858                       # Average occupied blocks per requestor
system.cpu0.itb_walker_cache.tags.occ_percent::cpu0.itb.walker     0.312554                       # Average percentage of cache occupancy
system.cpu0.itb_walker_cache.tags.occ_percent::total     0.312554                       # Average percentage of cache occupancy
system.cpu0.itb_walker_cache.tags.occ_task_id_blocks::1024            2                       # Occupied blocks per task id
system.cpu0.itb_walker_cache.tags.age_task_id_blocks_1024::3            1                       # Occupied blocks per task id
system.cpu0.itb_walker_cache.tags.age_task_id_blocks_1024::4            1                       # Occupied blocks per task id
system.cpu0.itb_walker_cache.tags.occ_task_id_percent::1024     0.125000                       # Percentage of cache occupancy per task id
system.cpu0.itb_walker_cache.tags.tag_accesses         2221                       # Number of tag accesses
system.cpu0.itb_walker_cache.tags.data_accesses         2221                       # Number of data accesses
system.cpu0.itb_walker_cache.pwrStateResidencyTicks::UNDEFINED 4800197583000                       # Cumulative time (in ticks) in various power states
system.cpu0.itb_walker_cache.ReadReq_hits::cpu0.itb.walker          408                       # number of ReadReq hits
system.cpu0.itb_walker_cache.ReadReq_hits::total          408                       # number of ReadReq hits
system.cpu0.itb_walker_cache.WriteReq_hits::cpu0.itb.walker            2                       # number of WriteReq hits
system.cpu0.itb_walker_cache.WriteReq_hits::total            2                       # number of WriteReq hits
system.cpu0.itb_walker_cache.demand_hits::cpu0.itb.walker          410                       # number of demand (read+write) hits
system.cpu0.itb_walker_cache.demand_hits::total          410                       # number of demand (read+write) hits
system.cpu0.itb_walker_cache.overall_hits::cpu0.itb.walker          410                       # number of overall hits
system.cpu0.itb_walker_cache.overall_hits::total          410                       # number of overall hits
system.cpu0.itb_walker_cache.ReadReq_misses::cpu0.itb.walker          467                       # number of ReadReq misses
system.cpu0.itb_walker_cache.ReadReq_misses::total          467                       # number of ReadReq misses
system.cpu0.itb_walker_cache.demand_misses::cpu0.itb.walker          467                       # number of demand (read+write) misses
system.cpu0.itb_walker_cache.demand_misses::total          467                       # number of demand (read+write) misses
system.cpu0.itb_walker_cache.overall_misses::cpu0.itb.walker          467                       # number of overall misses
system.cpu0.itb_walker_cache.overall_misses::total          467                       # number of overall misses
system.cpu0.itb_walker_cache.ReadReq_accesses::cpu0.itb.walker          875                       # number of ReadReq accesses(hits+misses)
system.cpu0.itb_walker_cache.ReadReq_accesses::total          875                       # number of ReadReq accesses(hits+misses)
system.cpu0.itb_walker_cache.WriteReq_accesses::cpu0.itb.walker            2                       # number of WriteReq accesses(hits+misses)
system.cpu0.itb_walker_cache.WriteReq_accesses::total            2                       # number of WriteReq accesses(hits+misses)
[...]
system.pc.south_bridge.pic1.pwrStateResidencyTicks::UNDEFINED 4800197583000                       # Cumulative time (in ticks) in various power states
system.pc.south_bridge.io_apic.pwrStateResidencyTicks::UNDEFINED 4800197583000                       # Cumulative time (in ticks) in various power states
system.pc.south_bridge.keyboard.pwrStateResidencyTicks::UNDEFINED 4800197583000                       # Cumulative time (in ticks) in various power states
system.pc.south_bridge.pit.pwrStateResidencyTicks::UNDEFINED 4800197583000                       # Cumulative time (in ticks) in various power states
system.pc.south_bridge.speaker.pwrStateResidencyTicks::UNDEFINED 4800197583000                       # Cumulative time (in ticks) in various power states
system.pc.south_bridge.ide.disks.dma_read_full_pages            3                       # Number of full page size DMA reads (not PRD).
system.pc.south_bridge.ide.disks.dma_read_bytes        12288                       # Number of bytes transfered via DMA reads (not PRD).
system.pc.south_bridge.ide.disks.dma_read_txs            3                       # Number of DMA read transactions (not PRD).
system.pc.south_bridge.ide.disks.dma_write_full_pages          650                       # Number of full page size DMA writes.
system.pc.south_bridge.ide.disks.dma_write_bytes      2665472                       # Number of bytes transfered via DMA writes.
system.pc.south_bridge.ide.disks.dma_write_txs          654                       # Number of DMA write transactions.
system.pc.south_bridge.ide.pwrStateResidencyTicks::UNDEFINED 4800197583000                       # Cumulative time (in ticks) in various power states
system.tol2bus.snoop_filter.tot_requests      6975272                       # Total number of requests made to the snoop filter.
system.tol2bus.snoop_filter.hit_single_requests      2799352                       # Number of requests hitting in the snoop filter with a single holder of the requested data.
system.tol2bus.snoop_filter.hit_multi_requests      1861477                       # Number of requests hitting in the snoop filter with multiple (>1) holders of the requested data.
system.tol2bus.snoop_filter.tot_snoops          11046                       # Total number of snoops made to the snoop filter.
system.tol2bus.snoop_filter.hit_single_snoops         9460                       # Number of snoops hitting in the snoop filter with a single holder of the requested data.
system.tol2bus.snoop_filter.hit_multi_snoops         1586                       # Number of snoops hitting in the snoop filter with multiple (>1) holders of the requested data.
system.tol2bus.pwrStateResidencyTicks::UNDEFINED 4800197583000                       # Cumulative time (in ticks) in various power states
system.tol2bus.trans_dist::ReadReq              87310                       # Transaction distribution
system.tol2bus.trans_dist::ReadResp           2879834                       # Transaction distribution
system.tol2bus.trans_dist::WriteReq             25418                       # Transaction distribution
system.tol2bus.trans_dist::WriteResp            25418                       # Transaction distribution
system.tol2bus.trans_dist::WritebackDirty      1153020                       # Transaction distribution
system.tol2bus.trans_dist::WritebackClean      1741603                       # Transaction distribution
system.tol2bus.trans_dist::CleanEvict          354954                       # Transaction distribution
system.tol2bus.trans_dist::UpgradeReq          165076                       # Transaction distribution
system.tol2bus.trans_dist::UpgradeResp         165076                       # Transaction distribution
system.tol2bus.trans_dist::ReadExReq           768095                       # Transaction distribution
system.tol2bus.trans_dist::ReadExResp          768095                       # Transaction distribution
system.tol2bus.trans_dist::ReadCleanReq       1745712                       # Transaction distribution
system.tol2bus.trans_dist::ReadSharedReq      1046812                       # Transaction distribution
system.tol2bus.pkt_count_system.cpu0.icache.mem_side::system.l2.cpu_side      3033599                       # Packet count per connected master and slave (bytes)
system.tol2bus.pkt_count_system.cpu0.dcache.mem_side::system.l2.cpu_side      3673427                       # Packet count per connected master and slave (bytes)
system.tol2bus.pkt_count_system.cpu0.itb_walker_cache.mem_side::system.l2.cpu_side         1333                       # Packet count per connected master and slave (bytes)
system.tol2bus.pkt_count_system.cpu0.dtb_walker_cache.mem_side::system.l2.cpu_side         1859                       # Packet count per connected master and slave (bytes)
system.tol2bus.pkt_count_system.cpu1.icache.mem_side::system.l2.cpu_side      1317990                       # Packet count per connected master and slave (bytes)
system.tol2bus.pkt_count_system.cpu1.dcache.mem_side::system.l2.cpu_side       896548                       # Packet count per connected master and slave (bytes)
system.tol2bus.pkt_count_system.cpu1.itb_walker_cache.mem_side::system.l2.cpu_side         1479                       # Packet count per connected master and slave (bytes)
system.tol2bus.pkt_count_system.cpu1.dtb_walker_cache.mem_side::system.l2.cpu_side         1541                       # Packet count per connected master and slave (bytes)
system.tol2bus.pkt_count_system.cpu2.icache.mem_side::system.l2.cpu_side       115362                       # Packet count per connected master and slave (bytes)
system.tol2bus.pkt_count_system.cpu2.dcache.mem_side::system.l2.cpu_side       143806                       # Packet count per connected master and slave (bytes)
system.tol2bus.pkt_count_system.cpu2.itb_walker_cache.mem_side::system.l2.cpu_side          252                       # Packet count per connected master and slave (bytes)
system.tol2bus.pkt_count_system.cpu2.dtb_walker_cache.mem_side::system.l2.cpu_side          552                       # Packet count per connected master and slave (bytes)
system.tol2bus.pkt_count_system.cpu3.icache.mem_side::system.l2.cpu_side       125492                       # Packet count per connected master and slave (bytes)
system.tol2bus.pkt_count_system.cpu3.dcache.mem_side::system.l2.cpu_side       172537                       # Packet count per connected master and slave (bytes)
system.tol2bus.pkt_count_system.cpu3.itb_walker_cache.mem_side::system.l2.cpu_side         1778                       # Packet count per connected master and slave (bytes)
system.tol2bus.pkt_count_system.cpu3.dtb_walker_cache.mem_side::system.l2.cpu_side         2193                       # Packet count per connected master and slave (bytes)
system.tol2bus.pkt_count_system.cpu4.icache.mem_side::system.l2.cpu_side       187626                       # Packet count per connected master and slave (bytes)
system.tol2bus.pkt_count_system.cpu4.dcache.mem_side::system.l2.cpu_side       213460                       # Packet count per connected master and slave (bytes)
system.tol2bus.pkt_count_system.cpu4.itb_walker_cache.mem_side::system.l2.cpu_side         2576                       # Packet count per connected master and slave (bytes)
system.tol2bus.pkt_count_system.cpu4.dtb_walker_cache.mem_side::system.l2.cpu_side         2990                       # Packet count per connected master and slave (bytes)
system.tol2bus.pkt_count_system.cpu5.icache.mem_side::system.l2.cpu_side       156222                       # Packet count per connected master and slave (bytes)
system.tol2bus.pkt_count_system.cpu5.dcache.mem_side::system.l2.cpu_side       205857                       # Packet count per connected master and slave (bytes)
system.tol2bus.pkt_count_system.cpu5.itb_walker_cache.mem_side::system.l2.cpu_side         4220                       # Packet count per connected master and slave (bytes)
system.tol2bus.pkt_count_system.cpu5.dtb_walker_cache.mem_side::system.l2.cpu_side         4731                       # Packet count per connected master and slave (bytes)
system.tol2bus.pkt_count_system.cpu6.icache.mem_side::system.l2.cpu_side       175170                       # Packet count per connected master and slave (bytes)
system.tol2bus.pkt_count_system.cpu6.dcache.mem_side::system.l2.cpu_side       197440                       # Packet count per connected master and slave (bytes)
system.tol2bus.pkt_count_system.cpu6.itb_walker_cache.mem_side::system.l2.cpu_side         1039                       # Packet count per connected master and slave (bytes)
system.tol2bus.pkt_count_system.cpu6.dtb_walker_cache.mem_side::system.l2.cpu_side         1243                       # Packet count per connected master and slave (bytes)
system.tol2bus.pkt_count_system.cpu7.icache.mem_side::system.l2.cpu_side       121566                       # Packet count per connected master and slave (bytes)
system.tol2bus.pkt_count_system.cpu7.dcache.mem_side::system.l2.cpu_side       158149                       # Packet count per connected master and slave (bytes)
system.tol2bus.pkt_count_system.cpu7.itb_walker_cache.mem_side::system.l2.cpu_side         2104                       # Packet count per connected master and slave (bytes)
system.tol2bus.pkt_count_system.cpu7.dtb_walker_cache.mem_side::system.l2.cpu_side         2282                       # Packet count per connected master and slave (bytes)
system.tol2bus.pkt_count::total              10926423                       # Packet count per connected master and slave (bytes)
system.tol2bus.pkt_size_system.cpu0.icache.mem_side::system.l2.cpu_side    129422528                       # Cumulative packet size per connected master and slave (bytes)
system.tol2bus.pkt_size_system.cpu0.dcache.mem_side::system.l2.cpu_side    131714692                       # Cumulative packet size per connected master and slave (bytes)
system.tol2bus.pkt_size_system.cpu0.itb_walker_cache.mem_side::system.l2.cpu_side        30400                       # Cumulative packet size per connected master and slave (bytes)
system.tol2bus.pkt_size_system.cpu0.dtb_walker_cache.mem_side::system.l2.cpu_side        43904                       # Cumulative packet size per connected master and slave (bytes)
system.tol2bus.pkt_size_system.cpu1.icache.mem_side::system.l2.cpu_side     56223296                       # Cumulative packet size per connected master and slave (bytes)
system.tol2bus.pkt_size_system.cpu1.dcache.mem_side::system.l2.cpu_side     26886595                       # Cumulative packet size per connected master and slave (bytes)
system.tol2bus.pkt_size_system.cpu1.itb_walker_cache.mem_side::system.l2.cpu_side        33856                       # Cumulative packet size per connected master and slave (bytes)
system.tol2bus.pkt_size_system.cpu1.dtb_walker_cache.mem_side::system.l2.cpu_side        36416                       # Cumulative packet size per connected master and slave (bytes)
system.tol2bus.pkt_size_system.cpu2.icache.mem_side::system.l2.cpu_side      4911168                       # Cumulative packet size per connected master and slave (bytes)
system.tol2bus.pkt_size_system.cpu2.dcache.mem_side::system.l2.cpu_side      3829745                       # Cumulative packet size per connected master and slave (bytes)
system.tol2bus.pkt_size_system.cpu2.itb_walker_cache.mem_side::system.l2.cpu_side         6016                       # Cumulative packet size per connected master and slave (bytes)
system.tol2bus.pkt_size_system.cpu2.dtb_walker_cache.mem_side::system.l2.cpu_side        12736                       # Cumulative packet size per connected master and slave (bytes)
system.tol2bus.pkt_size_system.cpu3.icache.mem_side::system.l2.cpu_side      5343360                       # Cumulative packet size per connected master and slave (bytes)
system.tol2bus.pkt_size_system.cpu3.dcache.mem_side::system.l2.cpu_side      4923045                       # Cumulative packet size per connected master and slave (bytes)
system.tol2bus.pkt_size_system.cpu3.itb_walker_cache.mem_side::system.l2.cpu_side        40192                       # Cumulative packet size per connected master and slave (bytes)
system.tol2bus.pkt_size_system.cpu3.dtb_walker_cache.mem_side::system.l2.cpu_side        52096                       # Cumulative packet size per connected master and slave (bytes)
system.tol2bus.pkt_size_system.cpu4.icache.mem_side::system.l2.cpu_side      7994432                       # Cumulative packet size per connected master and slave (bytes)
system.tol2bus.pkt_size_system.cpu4.dcache.mem_side::system.l2.cpu_side      6030398                       # Cumulative packet size per connected master and slave (bytes)
system.tol2bus.pkt_size_system.cpu4.itb_walker_cache.mem_side::system.l2.cpu_side        58880                       # Cumulative packet size per connected master and slave (bytes)
system.tol2bus.pkt_size_system.cpu4.dtb_walker_cache.mem_side::system.l2.cpu_side        73664                       # Cumulative packet size per connected master and slave (bytes)
system.tol2bus.pkt_size_system.cpu5.icache.mem_side::system.l2.cpu_side      6654528                       # Cumulative packet size per connected master and slave (bytes)
system.tol2bus.pkt_size_system.cpu5.dcache.mem_side::system.l2.cpu_side      6184264                       # Cumulative packet size per connected master and slave (bytes)
system.tol2bus.pkt_size_system.cpu5.itb_walker_cache.mem_side::system.l2.cpu_side        97216                       # Cumulative packet size per connected master and slave (bytes)
system.tol2bus.pkt_size_system.cpu5.dtb_walker_cache.mem_side::system.l2.cpu_side       116864                       # Cumulative packet size per connected master and slave (bytes)
system.tol2bus.pkt_size_system.cpu6.icache.mem_side::system.l2.cpu_side      7462976                       # Cumulative packet size per connected master and slave (bytes)
system.tol2bus.pkt_size_system.cpu6.dcache.mem_side::system.l2.cpu_side      5458208                       # Cumulative packet size per connected master and slave (bytes)
system.tol2bus.pkt_size_system.cpu6.itb_walker_cache.mem_side::system.l2.cpu_side        23680                       # Cumulative packet size per connected master and slave (bytes)
system.tol2bus.pkt_size_system.cpu6.dtb_walker_cache.mem_side::system.l2.cpu_side        29632                       # Cumulative packet size per connected master and slave (bytes)
system.tol2bus.pkt_size_system.cpu7.icache.mem_side::system.l2.cpu_side      5175872                       # Cumulative packet size per connected master and slave (bytes)
system.tol2bus.pkt_size_system.cpu7.dcache.mem_side::system.l2.cpu_side      4378247                       # Cumulative packet size per connected master and slave (bytes)
system.tol2bus.pkt_size_system.cpu7.itb_walker_cache.mem_side::system.l2.cpu_side        48320                       # Cumulative packet size per connected master and slave (bytes)
system.tol2bus.pkt_size_system.cpu7.dtb_walker_cache.mem_side::system.l2.cpu_side        54720                       # Cumulative packet size per connected master and slave (bytes)
system.tol2bus.pkt_size::total              413351946                       # Cumulative packet size per connected master and slave (bytes)
system.tol2bus.snoops                          800439                       # Total snoops (count)
system.tol2bus.snoopTraffic                  47432960                       # Total snoop traffic (bytes)
system.tol2bus.snoop_fanout::samples          4638002                       # Request fanout histogram
system.tol2bus.snoop_fanout::mean            1.008776                       # Request fanout histogram
system.tol2bus.snoop_fanout::stdev           2.110218                       # Request fanout histogram
system.tol2bus.snoop_fanout::underflows             0      0.00%      0.00% # Request fanout histogram
system.tol2bus.snoop_fanout::0                3221206     69.45%     69.45% # Request fanout histogram
system.tol2bus.snoop_fanout::1                 641617     13.83%     83.29% # Request fanout histogram
system.tol2bus.snoop_fanout::2                 214654      4.63%     87.91% # Request fanout histogram
system.tol2bus.snoop_fanout::3                  22260      0.48%     88.39% # Request fanout histogram
system.tol2bus.snoop_fanout::4                  17338      0.37%     88.77% # Request fanout histogram
system.tol2bus.snoop_fanout::5                  39965      0.86%     89.63% # Request fanout histogram
system.tol2bus.snoop_fanout::6                 104772      2.26%     91.89% # Request fanout histogram
system.tol2bus.snoop_fanout::7                 373561      8.05%     99.94% # Request fanout histogram
system.tol2bus.snoop_fanout::8                    638      0.01%     99.96% # Request fanout histogram
system.tol2bus.snoop_fanout::9                    412      0.01%     99.97% # Request fanout histogram
system.tol2bus.snoop_fanout::10                   417      0.01%     99.97% # Request fanout histogram
system.tol2bus.snoop_fanout::11                   207      0.00%     99.98% # Request fanout histogram
system.tol2bus.snoop_fanout::12                   225      0.00%     99.98% # Request fanout histogram
system.tol2bus.snoop_fanout::13                   239      0.01%     99.99% # Request fanout histogram
system.tol2bus.snoop_fanout::14                   194      0.00%     99.99% # Request fanout histogram
system.tol2bus.snoop_fanout::15                   268      0.01%    100.00% # Request fanout histogram
system.tol2bus.snoop_fanout::16                    29      0.00%    100.00% # Request fanout histogram
system.tol2bus.snoop_fanout::17                     0      0.00%    100.00% # Request fanout histogram
system.tol2bus.snoop_fanout::18                     0      0.00%    100.00% # Request fanout histogram
system.tol2bus.snoop_fanout::19                     0      0.00%    100.00% # Request fanout histogram
system.tol2bus.snoop_fanout::20                     0      0.00%    100.00% # Request fanout histogram
system.tol2bus.snoop_fanout::21                     0      0.00%    100.00% # Request fanout histogram
system.tol2bus.snoop_fanout::22                     0      0.00%    100.00% # Request fanout histogram
system.tol2bus.snoop_fanout::23                     0      0.00%    100.00% # Request fanout histogram
system.tol2bus.snoop_fanout::24                     0      0.00%    100.00% # Request fanout histogram
system.tol2bus.snoop_fanout::25                     0      0.00%    100.00% # Request fanout histogram
system.tol2bus.snoop_fanout::26                     0      0.00%    100.00% # Request fanout histogram
system.tol2bus.snoop_fanout::27                     0      0.00%    100.00% # Request fanout histogram
system.tol2bus.snoop_fanout::28                     0      0.00%    100.00% # Request fanout histogram
system.tol2bus.snoop_fanout::29                     0      0.00%    100.00% # Request fanout histogram
system.tol2bus.snoop_fanout::30                     0      0.00%    100.00% # Request fanout histogram
system.tol2bus.snoop_fanout::31                     0      0.00%    100.00% # Request fanout histogram
system.tol2bus.snoop_fanout::32                     0      0.00%    100.00% # Request fanout histogram
system.tol2bus.snoop_fanout::overflows              0      0.00%    100.00% # Request fanout histogram
system.tol2bus.snoop_fanout::min_value              0                       # Request fanout histogram
system.tol2bus.snoop_fanout::max_value             16                       # Request fanout histogram
system.tol2bus.snoop_fanout::total            4638002                       # Request fanout histogram

---------- End Simulation Statistics   ----------
