
---------- Begin Simulation Statistics ----------
sim_seconds                                  1.677475                       # Number of seconds simulated
sim_ticks                                1677475138500                       # Number of ticks simulated
final_tick                               6477650346500                       # Number of ticks from beginning of simulation (restored from checkpoints and never reset)
sim_freq                                 1000000000000                       # Frequency of simulated ticks
host_inst_rate                                1341405                       # Simulator instruction rate (inst/s)
host_op_rate                                  3039601                       # Simulator op (including micro ops) rate (op/s)
host_tick_rate                             1490596034                       # Simulator tick rate (ticks/s)
host_mem_usage                                2359632                       # Number of bytes of host memory used
host_seconds                                  1125.37                       # Real time elapsed on the host
sim_insts                                  1509579254                       # Number of instructions simulated
sim_ops                                    3420681505                       # Number of ops (including micro ops) simulated
system.voltage_domain.voltage                       1                       # Voltage in Volts
system.clk_domain.clock                          1000                       # Clock period in ticks
system.mem_ctrls.pwrStateResidencyTicks::UNDEFINED 6477650346500                       # Cumulative time (in ticks) in various power states
system.mem_ctrls.bytes_read::l2.prefetcher       484160                       # Number of bytes read from this memory
system.mem_ctrls.bytes_read::switch_cpus0.inst           64                       # Number of bytes read from this memory
system.mem_ctrls.bytes_read::switch_cpus0.data           64                       # Number of bytes read from this memory
system.mem_ctrls.bytes_read::switch_cpus_10.inst        11520                       # Number of bytes read from this memory
system.mem_ctrls.bytes_read::switch_cpus_10.data        33728                       # Number of bytes read from this memory
system.mem_ctrls.bytes_read::switch_cpus_11.inst         9728                       # Number of bytes read from this memory
system.mem_ctrls.bytes_read::switch_cpus_11.data        28288                       # Number of bytes read from this memory
system.mem_ctrls.bytes_read::switch_cpus_12.inst        24320                       # Number of bytes read from this memory
system.mem_ctrls.bytes_read::switch_cpus_12.data        35008                       # Number of bytes read from this memory
system.mem_ctrls.bytes_read::switch_cpus_13.dtb.walker           64                       # Number of bytes read from this memory
system.mem_ctrls.bytes_read::switch_cpus_13.inst         2240                       # Number of bytes read from this memory
system.mem_ctrls.bytes_read::switch_cpus_13.data        13056                       # Number of bytes read from this memory
system.mem_ctrls.bytes_read::switch_cpus_14.inst         3264                       # Number of bytes read from this memory
system.mem_ctrls.bytes_read::switch_cpus_14.data        29888                       # Number of bytes read from this memory
system.mem_ctrls.bytes_read::switch_cpus_15.inst          320                       # Number of bytes read from this memory
system.mem_ctrls.bytes_read::switch_cpus_15.data        17280                       # Number of bytes read from this memory
system.mem_ctrls.bytes_read::switch_cpus_16.inst         1920                       # Number of bytes read from this memory
system.mem_ctrls.bytes_read::switch_cpus_16.data        15808                       # Number of bytes read from this memory
system.mem_ctrls.bytes_read::switch_cpus_17.inst         3584                       # Number of bytes read from this memory
system.mem_ctrls.bytes_read::switch_cpus_17.data        33280                       # Number of bytes read from this memory
system.mem_ctrls.bytes_read::total             747584                       # Number of bytes read from this memory
system.mem_ctrls.bytes_inst_read::switch_cpus0.inst           64                       # Number of instructions bytes read from this memory
system.mem_ctrls.bytes_inst_read::switch_cpus_10.inst        11520                       # Number of instructions bytes read from this memory
system.mem_ctrls.bytes_inst_read::switch_cpus_11.inst         9728                       # Number of instructions bytes read from this memory
system.mem_ctrls.bytes_inst_read::switch_cpus_12.inst        24320                       # Number of instructions bytes read from this memory
system.mem_ctrls.bytes_inst_read::switch_cpus_13.inst         2240                       # Number of instructions bytes read from this memory
system.mem_ctrls.bytes_inst_read::switch_cpus_14.inst         3264                       # Number of instructions bytes read from this memory
system.mem_ctrls.bytes_inst_read::switch_cpus_15.inst          320                       # Number of instructions bytes read from this memory
system.mem_ctrls.bytes_inst_read::switch_cpus_16.inst         1920                       # Number of instructions bytes read from this memory
system.mem_ctrls.bytes_inst_read::switch_cpus_17.inst         3584                       # Number of instructions bytes read from this memory
system.mem_ctrls.bytes_inst_read::total         56960                       # Number of instructions bytes read from this memory
system.mem_ctrls.bytes_written::writebacks      1587968                       # Number of bytes written to this memory
system.mem_ctrls.bytes_written::total         1587968                       # Number of bytes written to this memory
system.mem_ctrls.num_reads::l2.prefetcher         7565                       # Number of read requests responded to by this memory
system.mem_ctrls.num_reads::switch_cpus0.inst            1                       # Number of read requests responded to by this memory
system.mem_ctrls.num_reads::switch_cpus0.data            1                       # Number of read requests responded to by this memory
system.mem_ctrls.num_reads::switch_cpus_10.inst          180                       # Number of read requests responded to by this memory
system.mem_ctrls.num_reads::switch_cpus_10.data          527                       # Number of read requests responded to by this memory
system.mem_ctrls.num_reads::switch_cpus_11.inst          152                       # Number of read requests responded to by this memory
system.mem_ctrls.num_reads::switch_cpus_11.data          442                       # Number of read requests responded to by this memory
system.mem_ctrls.num_reads::switch_cpus_12.inst          380                       # Number of read requests responded to by this memory
system.mem_ctrls.num_reads::switch_cpus_12.data          547                       # Number of read requests responded to by this memory
system.mem_ctrls.num_reads::switch_cpus_13.dtb.walker            1                       # Number of read requests responded to by this memory
system.mem_ctrls.num_reads::switch_cpus_13.inst           35                       # Number of read requests responded to by this memory
system.mem_ctrls.num_reads::switch_cpus_13.data          204                       # Number of read requests responded to by this memory
system.mem_ctrls.num_reads::switch_cpus_14.inst           51                       # Number of read requests responded to by this memory
system.mem_ctrls.num_reads::switch_cpus_14.data          467                       # Number of read requests responded to by this memory
system.mem_ctrls.num_reads::switch_cpus_15.inst            5                       # Number of read requests responded to by this memory
system.mem_ctrls.num_reads::switch_cpus_15.data          270                       # Number of read requests responded to by this memory
system.mem_ctrls.num_reads::switch_cpus_16.inst           30                       # Number of read requests responded to by this memory
system.mem_ctrls.num_reads::switch_cpus_16.data          247                       # Number of read requests responded to by this memory
system.mem_ctrls.num_reads::switch_cpus_17.inst           56                       # Number of read requests responded to by this memory
system.mem_ctrls.num_reads::switch_cpus_17.data          520                       # Number of read requests responded to by this memory
system.mem_ctrls.num_reads::total               11681                       # Number of read requests responded to by this memory
system.mem_ctrls.num_writes::writebacks         24812                       # Number of write requests responded to by this memory
system.mem_ctrls.num_writes::total              24812                       # Number of write requests responded to by this memory
system.mem_ctrls.bw_read::l2.prefetcher        288624                       # Total read bandwidth from this memory (bytes/s)
system.mem_ctrls.bw_read::switch_cpus0.inst           38                       # Total read bandwidth from this memory (bytes/s)
system.mem_ctrls.bw_read::switch_cpus0.data           38                       # Total read bandwidth from this memory (bytes/s)
system.mem_ctrls.bw_read::switch_cpus_10.inst         6867                       # Total read bandwidth from this memory (bytes/s)
system.mem_ctrls.bw_read::switch_cpus_10.data        20106                       # Total read bandwidth from this memory (bytes/s)
system.mem_ctrls.bw_read::switch_cpus_11.inst         5799                       # Total read bandwidth from this memory (bytes/s)
system.mem_ctrls.bw_read::switch_cpus_11.data        16863                       # Total read bandwidth from this memory (bytes/s)
system.mem_ctrls.bw_read::switch_cpus_12.inst        14498                       # Total read bandwidth from this memory (bytes/s)
system.mem_ctrls.bw_read::switch_cpus_12.data        20869                       # Total read bandwidth from this memory (bytes/s)
system.mem_ctrls.bw_read::switch_cpus_13.dtb.walker           38                       # Total read bandwidth from this memory (bytes/s)
system.mem_ctrls.bw_read::switch_cpus_13.inst         1335                       # Total read bandwidth from this memory (bytes/s)
system.mem_ctrls.bw_read::switch_cpus_13.data         7783                       # Total read bandwidth from this memory (bytes/s)
system.mem_ctrls.bw_read::switch_cpus_14.inst         1946                       # Total read bandwidth from this memory (bytes/s)
system.mem_ctrls.bw_read::switch_cpus_14.data        17817                       # Total read bandwidth from this memory (bytes/s)
system.mem_ctrls.bw_read::switch_cpus_15.inst          191                       # Total read bandwidth from this memory (bytes/s)
system.mem_ctrls.bw_read::switch_cpus_15.data        10301                       # Total read bandwidth from this memory (bytes/s)
system.mem_ctrls.bw_read::switch_cpus_16.inst         1145                       # Total read bandwidth from this memory (bytes/s)
system.mem_ctrls.bw_read::switch_cpus_16.data         9424                       # Total read bandwidth from this memory (bytes/s)
system.mem_ctrls.bw_read::switch_cpus_17.inst         2137                       # Total read bandwidth from this memory (bytes/s)
system.mem_ctrls.bw_read::switch_cpus_17.data        19839                       # Total read bandwidth from this memory (bytes/s)
system.mem_ctrls.bw_read::total                445660                       # Total read bandwidth from this memory (bytes/s)
system.mem_ctrls.bw_inst_read::switch_cpus0.inst           38                       # Instruction read bandwidth from this memory (bytes/s)
system.mem_ctrls.bw_inst_read::switch_cpus_10.inst         6867                       # Instruction read bandwidth from this memory (bytes/s)
system.mem_ctrls.bw_inst_read::switch_cpus_11.inst         5799                       # Instruction read bandwidth from this memory (bytes/s)
system.mem_ctrls.bw_inst_read::switch_cpus_12.inst        14498                       # Instruction read bandwidth from this memory (bytes/s)
system.mem_ctrls.bw_inst_read::switch_cpus_13.inst         1335                       # Instruction read bandwidth from this memory (bytes/s)
system.mem_ctrls.bw_inst_read::switch_cpus_14.inst         1946                       # Instruction read bandwidth from this memory (bytes/s)
system.mem_ctrls.bw_inst_read::switch_cpus_15.inst          191                       # Instruction read bandwidth from this memory (bytes/s)
system.mem_ctrls.bw_inst_read::switch_cpus_16.inst         1145                       # Instruction read bandwidth from this memory (bytes/s)
system.mem_ctrls.bw_inst_read::switch_cpus_17.inst         2137                       # Instruction read bandwidth from this memory (bytes/s)
system.mem_ctrls.bw_inst_read::total            33956                       # Instruction read bandwidth from this memory (bytes/s)
system.mem_ctrls.bw_write::writebacks          946642                       # Write bandwidth from this memory (bytes/s)
system.mem_ctrls.bw_write::total               946642                       # Write bandwidth from this memory (bytes/s)
system.mem_ctrls.bw_total::writebacks          946642                       # Total bandwidth to/from this memory (bytes/s)
system.mem_ctrls.bw_total::l2.prefetcher       288624                       # Total bandwidth to/from this memory (bytes/s)
system.mem_ctrls.bw_total::switch_cpus0.inst           38                       # Total bandwidth to/from this memory (bytes/s)
system.mem_ctrls.bw_total::switch_cpus0.data           38                       # Total bandwidth to/from this memory (bytes/s)
system.mem_ctrls.bw_total::switch_cpus_10.inst         6867                       # Total bandwidth to/from this memory (bytes/s)
system.mem_ctrls.bw_total::switch_cpus_10.data        20106                       # Total bandwidth to/from this memory (bytes/s)
system.mem_ctrls.bw_total::switch_cpus_11.inst         5799                       # Total bandwidth to/from this memory (bytes/s)
system.mem_ctrls.bw_total::switch_cpus_11.data        16863                       # Total bandwidth to/from this memory (bytes/s)
system.mem_ctrls.bw_total::switch_cpus_12.inst        14498                       # Total bandwidth to/from this memory (bytes/s)
system.mem_ctrls.bw_total::switch_cpus_12.data        20869                       # Total bandwidth to/from this memory (bytes/s)
system.mem_ctrls.bw_total::switch_cpus_13.dtb.walker           38                       # Total bandwidth to/from this memory (bytes/s)
system.mem_ctrls.bw_total::switch_cpus_13.inst         1335                       # Total bandwidth to/from this memory (bytes/s)
system.mem_ctrls.bw_total::switch_cpus_13.data         7783                       # Total bandwidth to/from this memory (bytes/s)
system.mem_ctrls.bw_total::switch_cpus_14.inst         1946                       # Total bandwidth to/from this memory (bytes/s)
system.mem_ctrls.bw_total::switch_cpus_14.data        17817                       # Total bandwidth to/from this memory (bytes/s)
system.mem_ctrls.bw_total::switch_cpus_15.inst          191                       # Total bandwidth to/from this memory (bytes/s)
system.mem_ctrls.bw_total::switch_cpus_15.data        10301                       # Total bandwidth to/from this memory (bytes/s)
system.mem_ctrls.bw_total::switch_cpus_16.inst         1145                       # Total bandwidth to/from this memory (bytes/s)
system.mem_ctrls.bw_total::switch_cpus_16.data         9424                       # Total bandwidth to/from this memory (bytes/s)
system.mem_ctrls.bw_total::switch_cpus_17.inst         2137                       # Total bandwidth to/from this memory (bytes/s)
system.mem_ctrls.bw_total::switch_cpus_17.data        19839                       # Total bandwidth to/from this memory (bytes/s)
system.mem_ctrls.bw_total::total              1392302                       # Total bandwidth to/from this memory (bytes/s)
system.mem_ctrls.readReqs                       11679                       # Number of read requests accepted
system.mem_ctrls.writeReqs                      24810                       # Number of write requests accepted
system.mem_ctrls.readBursts                     11679                       # Number of DRAM read bursts, including those serviced by the write queue
system.mem_ctrls.writeBursts                    24810                       # Number of DRAM write bursts, including those merged in the write queue
system.mem_ctrls.bytesReadDRAM                 745408                       # Total number of bytes read from DRAM
system.mem_ctrls.bytesReadWrQ                    2048                       # Total number of bytes read from write queue
system.mem_ctrls.bytesWritten                 1586816                       # Total number of bytes written to DRAM
system.mem_ctrls.bytesReadSys                  747456                       # Total read bytes from the system interface side
system.mem_ctrls.bytesWrittenSys              1587840                       # Total written bytes from the system interface side
system.mem_ctrls.servicedByWrQ                     32                       # Number of DRAM read bursts serviced by the write queue
system.mem_ctrls.mergedWrBursts                     0                       # Number of DRAM write bursts merged with an existing one
system.mem_ctrls.neitherReadNorWriteReqs            0                       # Number of requests that are neither read nor write
system.mem_ctrls.perBankRdBursts::0               777                       # Per bank write bursts
system.mem_ctrls.perBankRdBursts::1               615                       # Per bank write bursts
system.mem_ctrls.perBankRdBursts::2               563                       # Per bank write bursts
system.mem_ctrls.perBankRdBursts::3               575                       # Per bank write bursts
system.mem_ctrls.perBankRdBursts::4               833                       # Per bank write bursts
system.mem_ctrls.perBankRdBursts::5               659                       # Per bank write bursts
system.mem_ctrls.perBankRdBursts::6               777                       # Per bank write bursts
system.mem_ctrls.perBankRdBursts::7               638                       # Per bank write bursts
system.mem_ctrls.perBankRdBursts::8               635                       # Per bank write bursts
system.mem_ctrls.perBankRdBursts::9               681                       # Per bank write bursts
system.mem_ctrls.perBankRdBursts::10              888                       # Per bank write bursts
system.mem_ctrls.perBankRdBursts::11              686                       # Per bank write bursts
system.mem_ctrls.perBankRdBursts::12              968                       # Per bank write bursts
system.mem_ctrls.perBankRdBursts::13              923                       # Per bank write bursts
system.mem_ctrls.perBankRdBursts::14              776                       # Per bank write bursts
system.mem_ctrls.perBankRdBursts::15              653                       # Per bank write bursts
system.mem_ctrls.perBankWrBursts::0              1383                       # Per bank write bursts
system.mem_ctrls.perBankWrBursts::1              1298                       # Per bank write bursts
system.mem_ctrls.perBankWrBursts::2              1247                       # Per bank write bursts
system.mem_ctrls.perBankWrBursts::3              1208                       # Per bank write bursts
system.mem_ctrls.perBankWrBursts::4              1638                       # Per bank write bursts
system.mem_ctrls.perBankWrBursts::5              1470                       # Per bank write bursts
system.mem_ctrls.perBankWrBursts::6              1571                       # Per bank write bursts
system.mem_ctrls.perBankWrBursts::7              1427                       # Per bank write bursts
system.mem_ctrls.perBankWrBursts::8              1387                       # Per bank write bursts
system.mem_ctrls.perBankWrBursts::9              1628                       # Per bank write bursts
system.mem_ctrls.perBankWrBursts::10             1751                       # Per bank write bursts
system.mem_ctrls.perBankWrBursts::11             1836                       # Per bank write bursts
system.mem_ctrls.perBankWrBursts::12             1834                       # Per bank write bursts
system.mem_ctrls.perBankWrBursts::13             1811                       # Per bank write bursts
system.mem_ctrls.perBankWrBursts::14             1810                       # Per bank write bursts
system.mem_ctrls.perBankWrBursts::15             1495                       # Per bank write bursts
system.mem_ctrls.numRdRetry                         0                       # Number of times read queue was full causing retry
system.mem_ctrls.numWrRetry                        31                       # Number of times write queue was full causing retry
system.mem_ctrls.totGap                  1496685856500                       # Total gap between requests
system.mem_ctrls.readPktSize::0                     0                       # Read request sizes (log2)
system.mem_ctrls.readPktSize::1                     0                       # Read request sizes (log2)
system.mem_ctrls.readPktSize::2                     0                       # Read request sizes (log2)
system.mem_ctrls.readPktSize::3                     0                       # Read request sizes (log2)
system.mem_ctrls.readPktSize::4                     0                       # Read request sizes (log2)
system.mem_ctrls.readPktSize::5                     0                       # Read request sizes (log2)
system.mem_ctrls.readPktSize::6                 11679                       # Read request sizes (log2)
system.mem_ctrls.writePktSize::0                    0                       # Write request sizes (log2)
system.mem_ctrls.writePktSize::1                    0                       # Write request sizes (log2)
system.mem_ctrls.writePktSize::2                    0                       # Write request sizes (log2)
system.mem_ctrls.writePktSize::3                    0                       # Write request sizes (log2)
system.mem_ctrls.writePktSize::4                    0                       # Write request sizes (log2)
system.mem_ctrls.writePktSize::5                    0                       # Write request sizes (log2)
system.mem_ctrls.writePktSize::6                24810                       # Write request sizes (log2)
system.mem_ctrls.rdQLenPdf::0                    9823                       # What read queue length does an incoming req see
system.mem_ctrls.rdQLenPdf::1                     647                       # What read queue length does an incoming req see
system.mem_ctrls.rdQLenPdf::2                     476                       # What read queue length does an incoming req see
system.mem_ctrls.rdQLenPdf::3                     381                       # What read queue length does an incoming req see
system.mem_ctrls.rdQLenPdf::4                     316                       # What read queue length does an incoming req see
system.mem_ctrls.rdQLenPdf::5                       4                       # What read queue length does an incoming req see
system.mem_ctrls.rdQLenPdf::6                       0                       # What read queue length does an incoming req see
system.mem_ctrls.rdQLenPdf::7                       0                       # What read queue length does an incoming req see
system.mem_ctrls.rdQLenPdf::8                       0                       # What read queue length does an incoming req see
system.mem_ctrls.rdQLenPdf::9                       0                       # What read queue length does an incoming req see
system.mem_ctrls.rdQLenPdf::10                      0                       # What read queue length does an incoming req see
system.mem_ctrls.rdQLenPdf::11                      0                       # What read queue length does an incoming req see
system.mem_ctrls.rdQLenPdf::12                      0                       # What read queue length does an incoming req see
system.mem_ctrls.rdQLenPdf::13                      0                       # What read queue length does an incoming req see
system.mem_ctrls.rdQLenPdf::14                      0                       # What read queue length does an incoming req see
system.mem_ctrls.rdQLenPdf::15                      0                       # What read queue length does an incoming req see
system.mem_ctrls.rdQLenPdf::16                      0                       # What read queue length does an incoming req see
system.mem_ctrls.rdQLenPdf::17                      0                       # What read queue length does an incoming req see
system.mem_ctrls.rdQLenPdf::18                      0                       # What read queue length does an incoming req see
system.mem_ctrls.rdQLenPdf::19                      0                       # What read queue length does an incoming req see
system.mem_ctrls.rdQLenPdf::20                      0                       # What read queue length does an incoming req see
system.mem_ctrls.rdQLenPdf::21                      0                       # What read queue length does an incoming req see
system.mem_ctrls.rdQLenPdf::22                      0                       # What read queue length does an incoming req see
system.mem_ctrls.rdQLenPdf::23                      0                       # What read queue length does an incoming req see
system.mem_ctrls.rdQLenPdf::24                      0                       # What read queue length does an incoming req see
system.mem_ctrls.rdQLenPdf::25                      0                       # What read queue length does an incoming req see
system.mem_ctrls.rdQLenPdf::26                      0                       # What read queue length does an incoming req see
system.mem_ctrls.rdQLenPdf::27                      0                       # What read queue length does an incoming req see
system.mem_ctrls.rdQLenPdf::28                      0                       # What read queue length does an incoming req see
system.mem_ctrls.rdQLenPdf::29                      0                       # What read queue length does an incoming req see
system.mem_ctrls.rdQLenPdf::30                      0                       # What read queue length does an incoming req see
system.mem_ctrls.rdQLenPdf::31                      0                       # What read queue length does an incoming req see
system.mem_ctrls.wrQLenPdf::0                       1                       # What write queue length does an incoming req see
system.mem_ctrls.wrQLenPdf::1                       1                       # What write queue length does an incoming req see
system.mem_ctrls.wrQLenPdf::2                       1                       # What write queue length does an incoming req see
system.mem_ctrls.wrQLenPdf::3                       1                       # What write queue length does an incoming req see
system.mem_ctrls.wrQLenPdf::4                       1                       # What write queue length does an incoming req see
system.mem_ctrls.wrQLenPdf::5                       1                       # What write queue length does an incoming req see
system.mem_ctrls.wrQLenPdf::6                       1                       # What write queue length does an incoming req see
system.mem_ctrls.wrQLenPdf::7                       1                       # What write queue length does an incoming req see
system.mem_ctrls.wrQLenPdf::8                       1                       # What write queue length does an incoming req see
system.mem_ctrls.wrQLenPdf::9                       1                       # What write queue length does an incoming req see
system.mem_ctrls.wrQLenPdf::10                      1                       # What write queue length does an incoming req see
system.mem_ctrls.wrQLenPdf::11                      1                       # What write queue length does an incoming req see
system.mem_ctrls.wrQLenPdf::12                      1                       # What write queue length does an incoming req see
system.mem_ctrls.wrQLenPdf::13                      1                       # What write queue length does an incoming req see
system.mem_ctrls.wrQLenPdf::14                      1                       # What write queue length does an incoming req see
system.mem_ctrls.wrQLenPdf::15                    423                       # What write queue length does an incoming req see
system.mem_ctrls.wrQLenPdf::16                    878                       # What write queue length does an incoming req see
system.mem_ctrls.wrQLenPdf::17                    734                       # What write queue length does an incoming req see
system.mem_ctrls.wrQLenPdf::18                    886                       # What write queue length does an incoming req see
system.mem_ctrls.wrQLenPdf::19                   1093                       # What write queue length does an incoming req see
system.mem_ctrls.wrQLenPdf::20                    948                       # What write queue length does an incoming req see
system.mem_ctrls.wrQLenPdf::21                   1112                       # What write queue length does an incoming req see
system.mem_ctrls.wrQLenPdf::22                   1216                       # What write queue length does an incoming req see
system.mem_ctrls.wrQLenPdf::23                   1651                       # What write queue length does an incoming req see
system.mem_ctrls.wrQLenPdf::24                   1498                       # What write queue length does an incoming req see
system.mem_ctrls.wrQLenPdf::25                   2142                       # What write queue length does an incoming req see
system.mem_ctrls.wrQLenPdf::26                   2294                       # What write queue length does an incoming req see
system.mem_ctrls.wrQLenPdf::27                   1551                       # What write queue length does an incoming req see
system.mem_ctrls.wrQLenPdf::28                   1181                       # What write queue length does an incoming req see
system.mem_ctrls.wrQLenPdf::29                   1249                       # What write queue length does an incoming req see
system.mem_ctrls.wrQLenPdf::30                   1166                       # What write queue length does an incoming req see
system.mem_ctrls.wrQLenPdf::31                   1048                       # What write queue length does an incoming req see
system.mem_ctrls.wrQLenPdf::32                    992                       # What write queue length does an incoming req see
system.mem_ctrls.wrQLenPdf::33                    164                       # What write queue length does an incoming req see
system.mem_ctrls.wrQLenPdf::34                    159                       # What write queue length does an incoming req see
system.mem_ctrls.wrQLenPdf::35                    156                       # What write queue length does an incoming req see
system.mem_ctrls.wrQLenPdf::36                    134                       # What write queue length does an incoming req see
system.mem_ctrls.wrQLenPdf::37                     91                       # What write queue length does an incoming req see
system.mem_ctrls.wrQLenPdf::38                     95                       # What write queue length does an incoming req see
system.mem_ctrls.wrQLenPdf::39                    101                       # What write queue length does an incoming req see
system.mem_ctrls.wrQLenPdf::40                     84                       # What write queue length does an incoming req see
system.mem_ctrls.wrQLenPdf::41                     66                       # What write queue length does an incoming req see
system.mem_ctrls.wrQLenPdf::42                    109                       # What write queue length does an incoming req see
system.mem_ctrls.wrQLenPdf::43                     93                       # What write queue length does an incoming req see
system.mem_ctrls.wrQLenPdf::44                     84                       # What write queue length does an incoming req see
system.mem_ctrls.wrQLenPdf::45                     69                       # What write queue length does an incoming req see
system.mem_ctrls.wrQLenPdf::46                    123                       # What write queue length does an incoming req see
system.mem_ctrls.wrQLenPdf::47                    106                       # What write queue length does an incoming req see
system.mem_ctrls.wrQLenPdf::48                     67                       # What write queue length does an incoming req see
system.mem_ctrls.wrQLenPdf::49                     89                       # What write queue length does an incoming req see
system.mem_ctrls.wrQLenPdf::50                     87                       # What write queue length does an incoming req see
system.mem_ctrls.wrQLenPdf::51                     49                       # What write queue length does an incoming req see
system.mem_ctrls.wrQLenPdf::52                     53                       # What write queue length does an incoming req see
system.mem_ctrls.wrQLenPdf::53                     45                       # What write queue length does an incoming req see
system.mem_ctrls.wrQLenPdf::54                     48                       # What write queue length does an incoming req see
system.mem_ctrls.wrQLenPdf::55                     74                       # What write queue length does an incoming req see
system.mem_ctrls.wrQLenPdf::56                     88                       # What write queue length does an incoming req see
system.mem_ctrls.wrQLenPdf::57                     73                       # What write queue length does an incoming req see
system.mem_ctrls.wrQLenPdf::58                     72                       # What write queue length does an incoming req see
system.mem_ctrls.wrQLenPdf::59                     80                       # What write queue length does an incoming req see
system.mem_ctrls.wrQLenPdf::60                     75                       # What write queue length does an incoming req see
system.mem_ctrls.wrQLenPdf::61                     61                       # What write queue length does an incoming req see
system.mem_ctrls.wrQLenPdf::62                     62                       # What write queue length does an incoming req see
system.mem_ctrls.wrQLenPdf::63                     76                       # What write queue length does an incoming req see
system.mem_ctrls.bytesPerActivate::samples         7569                       # Bytes accessed per row activation
system.mem_ctrls.bytesPerActivate::mean    308.128419                       # Bytes accessed per row activation
system.mem_ctrls.bytesPerActivate::gmean   158.313716                       # Bytes accessed per row activation
system.mem_ctrls.bytesPerActivate::stdev   371.462390                       # Bytes accessed per row activation
system.mem_ctrls.bytesPerActivate::0-127         3830     50.60%     50.60% # Bytes accessed per row activation
system.mem_ctrls.bytesPerActivate::128-255         1321     17.45%     68.05% # Bytes accessed per row activation
system.mem_ctrls.bytesPerActivate::256-383          461      6.09%     74.14% # Bytes accessed per row activation
system.mem_ctrls.bytesPerActivate::384-511          227      3.00%     77.14% # Bytes accessed per row activation
system.mem_ctrls.bytesPerActivate::512-639          120      1.59%     78.73% # Bytes accessed per row activation
system.mem_ctrls.bytesPerActivate::640-767           82      1.08%     79.81% # Bytes accessed per row activation
system.mem_ctrls.bytesPerActivate::768-895           51      0.67%     80.49% # Bytes accessed per row activation
system.mem_ctrls.bytesPerActivate::896-1023           86      1.14%     81.62% # Bytes accessed per row activation
system.mem_ctrls.bytesPerActivate::1024-1151         1391     18.38%    100.00% # Bytes accessed per row activation
system.mem_ctrls.bytesPerActivate::total         7569                       # Bytes accessed per row activation
system.mem_ctrls.rdPerTurnAround::samples          832                       # Reads before turning the bus around for writes
system.mem_ctrls.rdPerTurnAround::mean      13.995192                       # Reads before turning the bus around for writes
system.mem_ctrls.rdPerTurnAround::stdev     17.118964                       # Reads before turning the bus around for writes
system.mem_ctrls.rdPerTurnAround::0-3             391     47.00%     47.00% # Reads before turning the bus around for writes
system.mem_ctrls.rdPerTurnAround::4-7              10      1.20%     48.20% # Reads before turning the bus around for writes
system.mem_ctrls.rdPerTurnAround::8-11              5      0.60%     48.80% # Reads before turning the bus around for writes
system.mem_ctrls.rdPerTurnAround::12-15            24      2.88%     51.68% # Reads before turning the bus around for writes
system.mem_ctrls.rdPerTurnAround::16-19           115     13.82%     65.50% # Reads before turning the bus around for writes
system.mem_ctrls.rdPerTurnAround::20-23            99     11.90%     77.40% # Reads before turning the bus around for writes
system.mem_ctrls.rdPerTurnAround::24-27            74      8.89%     86.30% # Reads before turning the bus around for writes
system.mem_ctrls.rdPerTurnAround::28-31            37      4.45%     90.75% # Reads before turning the bus around for writes
system.mem_ctrls.rdPerTurnAround::32-35            23      2.76%     93.51% # Reads before turning the bus around for writes
system.mem_ctrls.rdPerTurnAround::36-39            14      1.68%     95.19% # Reads before turning the bus around for writes
system.mem_ctrls.rdPerTurnAround::40-43             8      0.96%     96.15% # Reads before turning the bus around for writes
system.mem_ctrls.rdPerTurnAround::44-47             2      0.24%     96.39% # Reads before turning the bus around for writes
system.mem_ctrls.rdPerTurnAround::48-51             4      0.48%     96.87% # Reads before turning the bus around for writes
system.mem_ctrls.rdPerTurnAround::56-59             6      0.72%     97.60% # Reads before turning the bus around for writes
system.mem_ctrls.rdPerTurnAround::60-63             6      0.72%     98.32% # Reads before turning the bus around for writes
system.mem_ctrls.rdPerTurnAround::64-67             1      0.12%     98.44% # Reads before turning the bus around for writes
system.mem_ctrls.rdPerTurnAround::68-71             1      0.12%     98.56% # Reads before turning the bus around for writes
system.mem_ctrls.rdPerTurnAround::72-75             1      0.12%     98.68% # Reads before turning the bus around for writes
system.mem_ctrls.rdPerTurnAround::76-79             1      0.12%     98.80% # Reads before turning the bus around for writes
system.mem_ctrls.rdPerTurnAround::80-83             1      0.12%     98.92% # Reads before turning the bus around for writes
system.mem_ctrls.rdPerTurnAround::84-87             1      0.12%     99.04% # Reads before turning the bus around for writes
system.mem_ctrls.rdPerTurnAround::88-91             2      0.24%     99.28% # Reads before turning the bus around for writes
system.mem_ctrls.rdPerTurnAround::92-95             1      0.12%     99.40% # Reads before turning the bus around for writes
system.mem_ctrls.rdPerTurnAround::96-99             1      0.12%     99.52% # Reads before turning the bus around for writes
system.mem_ctrls.rdPerTurnAround::100-103            1      0.12%     99.64% # Reads before turning the bus around for writes
system.mem_ctrls.rdPerTurnAround::116-119            2      0.24%     99.88% # Reads before turning the bus around for writes
system.mem_ctrls.rdPerTurnAround::124-127            1      0.12%    100.00% # Reads before turning the bus around for writes
system.mem_ctrls.rdPerTurnAround::total           832                       # Reads before turning the bus around for writes
system.mem_ctrls.wrPerTurnAround::samples          832                       # Writes before turning the bus around for reads
system.mem_ctrls.wrPerTurnAround::mean      29.800481                       # Writes before turning the bus around for reads
system.mem_ctrls.wrPerTurnAround::gmean     24.465375                       # Writes before turning the bus around for reads
system.mem_ctrls.wrPerTurnAround::stdev     24.084360                       # Writes before turning the bus around for reads
system.mem_ctrls.wrPerTurnAround::16-19           489     58.77%     58.77% # Writes before turning the bus around for reads
system.mem_ctrls.wrPerTurnAround::20-23            28      3.37%     62.14% # Writes before turning the bus around for reads
system.mem_ctrls.wrPerTurnAround::24-27             4      0.48%     62.62% # Writes before turning the bus around for reads
system.mem_ctrls.wrPerTurnAround::28-31            12      1.44%     64.06% # Writes before turning the bus around for reads
system.mem_ctrls.wrPerTurnAround::32-35           143     17.19%     81.25% # Writes before turning the bus around for reads
system.mem_ctrls.wrPerTurnAround::36-39             4      0.48%     81.73% # Writes before turning the bus around for reads
system.mem_ctrls.wrPerTurnAround::40-43            13      1.56%     83.29% # Writes before turning the bus around for reads
system.mem_ctrls.wrPerTurnAround::44-47             5      0.60%     83.89% # Writes before turning the bus around for reads
system.mem_ctrls.wrPerTurnAround::48-51             3      0.36%     84.25% # Writes before turning the bus around for reads
system.mem_ctrls.wrPerTurnAround::52-55             3      0.36%     84.62% # Writes before turning the bus around for reads
system.mem_ctrls.wrPerTurnAround::56-59             2      0.24%     84.86% # Writes before turning the bus around for reads
system.mem_ctrls.wrPerTurnAround::60-63             5      0.60%     85.46% # Writes before turning the bus around for reads
system.mem_ctrls.wrPerTurnAround::64-67            83      9.98%     95.43% # Writes before turning the bus around for reads
system.mem_ctrls.wrPerTurnAround::68-71             5      0.60%     96.03% # Writes before turning the bus around for reads
system.mem_ctrls.wrPerTurnAround::72-75             2      0.24%     96.27% # Writes before turning the bus around for reads
system.mem_ctrls.wrPerTurnAround::76-79             5      0.60%     96.88% # Writes before turning the bus around for reads
system.mem_ctrls.wrPerTurnAround::80-83             2      0.24%     97.12% # Writes before turning the bus around for reads
system.mem_ctrls.wrPerTurnAround::84-87             1      0.12%     97.24% # Writes before turning the bus around for reads
system.mem_ctrls.wrPerTurnAround::92-95             2      0.24%     97.48% # Writes before turning the bus around for reads
system.mem_ctrls.wrPerTurnAround::96-99             1      0.12%     97.60% # Writes before turning the bus around for reads
system.mem_ctrls.wrPerTurnAround::104-107            1      0.12%     97.72% # Writes before turning the bus around for reads
system.mem_ctrls.wrPerTurnAround::108-111            3      0.36%     98.08% # Writes before turning the bus around for reads
system.mem_ctrls.wrPerTurnAround::112-115            1      0.12%     98.20% # Writes before turning the bus around for reads
system.mem_ctrls.wrPerTurnAround::120-123            1      0.12%     98.32% # Writes before turning the bus around for reads
system.mem_ctrls.wrPerTurnAround::128-131            8      0.96%     99.28% # Writes before turning the bus around for reads
system.mem_ctrls.wrPerTurnAround::132-135            1      0.12%     99.40% # Writes before turning the bus around for reads
system.mem_ctrls.wrPerTurnAround::144-147            1      0.12%     99.52% # Writes before turning the bus around for reads
system.mem_ctrls.wrPerTurnAround::156-159            1      0.12%     99.64% # Writes before turning the bus around for reads
system.mem_ctrls.wrPerTurnAround::180-183            1      0.12%     99.76% # Writes before turning the bus around for reads
system.mem_ctrls.wrPerTurnAround::192-195            1      0.12%     99.88% # Writes before turning the bus around for reads
system.mem_ctrls.wrPerTurnAround::200-203            1      0.12%    100.00% # Writes before turning the bus around for reads
system.mem_ctrls.wrPerTurnAround::total           832                       # Writes before turning the bus around for reads
system.mem_ctrls.totQLat                    909877222                       # Total ticks spent queuing
system.mem_ctrls.totMemAccLat              1128258472                       # Total ticks spent from burst creation until serviced by the DRAM
system.mem_ctrls.totBusLat                   58235000                       # Total ticks spent in databus transfers
system.mem_ctrls.avgQLat                     78121.17                       # Average queueing delay per DRAM burst
system.mem_ctrls.avgBusLat                    5000.00                       # Average bus latency per DRAM burst
system.mem_ctrls.avgMemAccLat                96871.17                       # Average memory access latency per DRAM burst
system.mem_ctrls.avgRdBW                         0.44                       # Average DRAM read bandwidth in MiByte/s
system.mem_ctrls.avgWrBW                         0.95                       # Average achieved write bandwidth in MiByte/s
system.mem_ctrls.avgRdBWSys                      0.45                       # Average system read bandwidth in MiByte/s
system.mem_ctrls.avgWrBWSys                      0.95                       # Average system write bandwidth in MiByte/s
system.mem_ctrls.peakBW                      12800.00                       # Theoretical peak bandwidth in MiByte/s
system.mem_ctrls.busUtil                         0.01                       # Data bus utilization in percentage
system.mem_ctrls.busUtilRead                     0.00                       # Data bus utilization in percentage for reads
system.mem_ctrls.busUtilWrite                    0.01                       # Data bus utilization in percentage for writes
system.mem_ctrls.avgRdQLen                       1.46                       # Average read queue length when enqueuing
system.mem_ctrls.avgWrQLen                      21.32                       # Average write queue length when enqueuing
system.mem_ctrls.readRowHits                     8681                       # Number of row buffer hits during reads
system.mem_ctrls.writeRowHits                   20191                       # Number of row buffer hits during writes
system.mem_ctrls.readRowHitRate                 74.53                       # Row buffer hit rate for reads
system.mem_ctrls.writeRowHitRate                81.38                       # Row buffer hit rate for writes
system.mem_ctrls.avgGap                   41017453.38                       # Average gap between requests
system.mem_ctrls.pageHitRate                    79.19                       # Row buffer hit rate, read and write combined
system.mem_ctrls_0.actEnergy                 24554460                       # Energy for activate commands per rank (pJ)
system.mem_ctrls_0.preEnergy                 13051005                       # Energy for precharge commands per rank (pJ)
system.mem_ctrls_0.readEnergy                38820180                       # Energy for read commands per rank (pJ)
system.mem_ctrls_0.writeEnergy               58683240                       # Energy for write commands per rank (pJ)
system.mem_ctrls_0.refreshEnergy         816241920.000000                       # Energy for refresh commands per rank (pJ)
system.mem_ctrls_0.actBackEnergy            514946550                       # Energy for active background per rank (pJ)
system.mem_ctrls_0.preBackEnergy             56729280                       # Energy for precharge background per rank (pJ)
system.mem_ctrls_0.actPowerDownEnergy      1323742920                       # Energy for active power-down per rank (pJ)
system.mem_ctrls_0.prePowerDownEnergy      1235059200                       # Energy for precharge power-down per rank (pJ)
system.mem_ctrls_0.selfRefreshEnergy     401035904640                       # Energy for self refresh per rank (pJ)
system.mem_ctrls_0.totalEnergy           405117738675                       # Total energy per rank (pJ)
system.mem_ctrls_0.averagePower            241.504467                       # Core power per rank (mW)
system.mem_ctrls_0.totalIdleTime         1213394863277                       # Total Idle time Per DRAM Rank
system.mem_ctrls_0.memoryStateTime::IDLE    121331503                       # Time in different power states
system.mem_ctrls_0.memoryStateTime::REF     347728000                       # Time in different power states
system.mem_ctrls_0.memoryStateTime::SREF 1670048706750                       # Time in different power states
system.mem_ctrls_0.memoryStateTime::PRE_PDN   3216297732                       # Time in different power states
system.mem_ctrls_0.memoryStateTime::ACT     815769970                       # Time in different power states
system.mem_ctrls_0.memoryStateTime::ACT_PDN   2902927545                       # Time in different power states
system.mem_ctrls_1.actEnergy                 29488200                       # Energy for activate commands per rank (pJ)
system.mem_ctrls_1.preEnergy                 15673350                       # Energy for precharge commands per rank (pJ)
system.mem_ctrls_1.readEnergy                44339400                       # Energy for read commands per rank (pJ)
system.mem_ctrls_1.writeEnergy               70741440                       # Energy for write commands per rank (pJ)
system.mem_ctrls_1.refreshEnergy         789812400.000000                       # Energy for refresh commands per rank (pJ)
system.mem_ctrls_1.actBackEnergy            491917410                       # Energy for active background per rank (pJ)
system.mem_ctrls_1.preBackEnergy             58413120                       # Energy for precharge background per rank (pJ)
system.mem_ctrls_1.actPowerDownEnergy      1342639560                       # Energy for active power-down per rank (pJ)
system.mem_ctrls_1.prePowerDownEnergy      1190432160                       # Energy for precharge power-down per rank (pJ)
system.mem_ctrls_1.selfRefreshEnergy     401049794580                       # Energy for self refresh per rank (pJ)
system.mem_ctrls_1.totalEnergy           405083274570                       # Total energy per rank (pJ)
system.mem_ctrls_1.averagePower            241.483921                       # Core power per rank (mW)
system.mem_ctrls_1.totalIdleTime         1495470966294                       # Total Idle time Per DRAM Rank
system.mem_ctrls_1.memoryStateTime::IDLE    122061500                       # Time in different power states
system.mem_ctrls_1.memoryStateTime::REF     336362000                       # Time in different power states
system.mem_ctrls_1.memoryStateTime::SREF 1670173258250                       # Time in different power states
system.mem_ctrls_1.memoryStateTime::PRE_PDN   3100058214                       # Time in different power states
system.mem_ctrls_1.memoryStateTime::ACT     776651206                       # Time in different power states
system.mem_ctrls_1.memoryStateTime::ACT_PDN   2944370330                       # Time in different power states
system.pwrStateResidencyTicks::UNDEFINED 6477650346500                       # Cumulative time (in ticks) in various power states
system.apicbridge.pwrStateResidencyTicks::UNDEFINED 6477650346500                       # Cumulative time (in ticks) in various power states
system.bridge.pwrStateResidencyTicks::UNDEFINED 6477650346500                       # Cumulative time (in ticks) in various power states
system.cpu_voltage_domain.voltage                   1                       # Voltage in Volts
system.cpu_clk_domain.clock                       500                       # Clock period in ticks
system.cpu0.dtb.walker.pwrStateResidencyTicks::UNDEFINED 6477650346500                       # Cumulative time (in ticks) in various power states
system.cpu0.dtb.rdAccesses                          0                       # TLB accesses on read requests
system.cpu0.dtb.wrAccesses                          0                       # TLB accesses on write requests
system.cpu0.dtb.rdMisses                            0                       # TLB misses on read requests
system.cpu0.dtb.wrMisses                            0                       # TLB misses on write requests
system.cpu0.apic_clk_domain.clock                8000                       # Clock period in ticks
system.cpu0.interrupts.pwrStateResidencyTicks::UNDEFINED 6477650346500                       # Cumulative time (in ticks) in various power states
system.cpu0.itb.walker.pwrStateResidencyTicks::UNDEFINED 6477650346500                       # Cumulative time (in ticks) in various power states
system.cpu0.itb.rdAccesses                          0                       # TLB accesses on read requests
system.cpu0.itb.wrAccesses                          0                       # TLB accesses on write requests
system.cpu0.itb.rdMisses                            0                       # TLB misses on read requests
system.cpu0.itb.wrMisses                            0                       # TLB misses on write requests
system.cpu0.pwrStateResidencyTicks::OFF  6477650344500                       # Cumulative time (in ticks) in various power states
system.cpu0.numCycles                               0                       # number of cpu cycles simulated
system.cpu0.numWorkItemsStarted                     0                       # number of work items this cpu started
system.cpu0.numWorkItemsCompleted                   0                       # number of work items this cpu completed
system.cpu0.kern.inst.arm                           0                       # number of arm instructions executed
system.cpu0.kern.inst.quiesce                       0                       # number of quiesce instructions executed
system.cpu0.committedInsts                          0                       # Number of instructions committed
system.cpu0.committedOps                            0                       # Number of ops (including micro ops) committed
system.cpu0.num_int_alu_accesses                    0                       # Number of integer alu accesses
system.cpu0.num_fp_alu_accesses                     0                       # Number of float alu accesses
system.cpu0.num_vec_alu_accesses                    0                       # Number of vector alu accesses
system.cpu0.num_func_calls                          0                       # number of times a function call or return occured
system.cpu0.num_conditional_control_insts            0                       # number of instructions that are conditional controls
system.cpu0.num_int_insts                           0                       # number of integer instructions
system.cpu0.num_fp_insts                            0                       # number of float instructions
system.cpu0.num_vec_insts                           0                       # number of vector instructions
system.cpu0.num_int_register_reads                  0                       # number of times the integer registers were read
system.cpu0.num_int_register_writes                 0                       # number of times the integer registers were written
system.cpu0.num_fp_register_reads                   0                       # number of times the floating registers were read
system.cpu0.num_fp_register_writes                  0                       # number of times the floating registers were written
system.cpu0.num_vec_register_reads                  0                       # number of times the vector registers were read
system.cpu0.num_vec_register_writes                 0                       # number of times the vector registers were written
system.cpu0.num_mem_refs                            0                       # number of memory refs
system.cpu0.num_load_insts                          0                       # Number of load instructions
system.cpu0.num_store_insts                         0                       # Number of store instructions
system.cpu0.num_idle_cycles                         0                       # Number of idle cycles
system.cpu0.num_busy_cycles                         0                       # Number of busy cycles
system.cpu0.not_idle_fraction                       1                       # Percentage of non-idle cycles
system.cpu0.idle_fraction                           0                       # Percentage of idle cycles
system.cpu0.op_class::No_OpClass                    0                       # Class of executed instruction
system.cpu0.op_class::IntAlu                        0                       # Class of executed instruction
system.cpu0.op_class::IntMult                       0                       # Class of executed instruction
system.cpu0.op_class::IntDiv                        0                       # Class of executed instruction
system.cpu0.op_class::FloatAdd                      0                       # Class of executed instruction
system.cpu0.op_class::FloatCmp                      0                       # Class of executed instruction
system.cpu0.op_class::FloatCvt                      0                       # Class of executed instruction
system.cpu0.op_class::FloatMult                     0                       # Class of executed instruction
system.cpu0.op_class::FloatMultAcc                  0                       # Class of executed instruction
system.cpu0.op_class::FloatDiv                      0                       # Class of executed instruction
system.cpu0.op_class::FloatMisc                     0                       # Class of executed instruction
system.cpu0.op_class::FloatSqrt                     0                       # Class of executed instruction
system.cpu0.op_class::SimdAdd                       0                       # Class of executed instruction
system.cpu0.op_class::SimdAddAcc                    0                       # Class of executed instruction
system.cpu0.op_class::SimdAlu                       0                       # Class of executed instruction
system.cpu0.op_class::SimdCmp                       0                       # Class of executed instruction
system.cpu0.op_class::SimdCvt                       0                       # Class of executed instruction
system.cpu0.op_class::SimdMisc                      0                       # Class of executed instruction
system.cpu0.op_class::SimdMult                      0                       # Class of executed instruction
system.cpu0.op_class::SimdMultAcc                   0                       # Class of executed instruction
system.cpu0.op_class::SimdShift                     0                       # Class of executed instruction
system.cpu0.op_class::SimdShiftAcc                  0                       # Class of executed instruction
system.cpu0.op_class::SimdSqrt                      0                       # Class of executed instruction
system.cpu0.op_class::SimdFloatAdd                  0                       # Class of executed instruction
system.cpu0.op_class::SimdFloatAlu                  0                       # Class of executed instruction
system.cpu0.op_class::SimdFloatCmp                  0                       # Class of executed instruction
system.cpu0.op_class::SimdFloatCvt                  0                       # Class of executed instruction
system.cpu0.op_class::SimdFloatDiv                  0                       # Class of executed instruction
system.cpu0.op_class::SimdFloatMisc                 0                       # Class of executed instruction
system.cpu0.op_class::SimdFloatMult                 0                       # Class of executed instruction
system.cpu0.op_class::SimdFloatMultAcc              0                       # Class of executed instruction
system.cpu0.op_class::SimdFloatSqrt                 0                       # Class of executed instruction
system.cpu0.op_class::MemRead                       0                       # Class of executed instruction
system.cpu0.op_class::MemWrite                      0                       # Class of executed instruction
system.cpu0.op_class::FloatMemRead                  0                       # Class of executed instruction
system.cpu0.op_class::FloatMemWrite                 0                       # Class of executed instruction
system.cpu0.op_class::IprAccess                     0                       # Class of executed instruction
system.cpu0.op_class::InstPrefetch                  0                       # Class of executed instruction
system.cpu0.op_class::total                         0                       # Class of executed instruction
system.cpu0.dcache.tags.pwrStateResidencyTicks::UNDEFINED 6477650346500                       # Cumulative time (in ticks) in various power states
system.cpu0.dcache.tags.replacements            20209                       # number of replacements
system.cpu0.dcache.tags.tagsinuse          885.973686                       # Cycle average of tags in use
system.cpu0.dcache.tags.total_refs            1057975                       # Total number of references to valid blocks.
system.cpu0.dcache.tags.sampled_refs            21173                       # Sample count of references to valid blocks.
system.cpu0.dcache.tags.avg_refs            49.968120                       # Average number of references to valid blocks.
system.cpu0.dcache.tags.warmup_cycle                0                       # Cycle when the warmup percentage was hit.
system.cpu0.dcache.tags.occ_blocks::switch_cpus0.data    12.664105                       # Average occupied blocks per requestor
system.cpu0.dcache.tags.occ_blocks::switch_cpus_10.data   873.309581                       # Average occupied blocks per requestor
system.cpu0.dcache.tags.occ_percent::switch_cpus0.data     0.012367                       # Average percentage of cache occupancy
system.cpu0.dcache.tags.occ_percent::switch_cpus_10.data     0.852841                       # Average percentage of cache occupancy
system.cpu0.dcache.tags.occ_percent::total     0.865209                       # Average percentage of cache occupancy
system.cpu0.dcache.tags.occ_task_id_blocks::1024          964                       # Occupied blocks per task id
system.cpu0.dcache.tags.age_task_id_blocks_1024::3           10                       # Occupied blocks per task id
system.cpu0.dcache.tags.age_task_id_blocks_1024::4          954                       # Occupied blocks per task id
system.cpu0.dcache.tags.occ_task_id_percent::1024     0.941406                       # Percentage of cache occupancy per task id
system.cpu0.dcache.tags.tag_accesses          2262765                       # Number of tag accesses
system.cpu0.dcache.tags.data_accesses         2262765                       # Number of data accesses
system.cpu0.dcache.pwrStateResidencyTicks::UNDEFINED 6477650346500                       # Cumulative time (in ticks) in various power states
system.cpu0.dcache.ReadReq_hits::switch_cpus0.data         5356                       # number of ReadReq hits
system.cpu0.dcache.ReadReq_hits::switch_cpus_10.data       665245                       # number of ReadReq hits
system.cpu0.dcache.ReadReq_hits::total         670601                       # number of ReadReq hits
system.cpu0.dcache.WriteReq_hits::switch_cpus0.data         2913                       # number of WriteReq hits
system.cpu0.dcache.WriteReq_hits::switch_cpus_10.data       413331                       # number of WriteReq hits
system.cpu0.dcache.WriteReq_hits::total        416244                       # number of WriteReq hits
system.cpu0.dcache.SoftPFReq_hits::switch_cpus0.data            6                       # number of SoftPFReq hits
system.cpu0.dcache.SoftPFReq_hits::switch_cpus_10.data           98                       # number of SoftPFReq hits
system.cpu0.dcache.SoftPFReq_hits::total          104                       # number of SoftPFReq hits
system.cpu0.dcache.demand_hits::switch_cpus0.data         8269                       # number of demand (read+write) hits
system.cpu0.dcache.demand_hits::switch_cpus_10.data      1078576                       # number of demand (read+write) hits
system.cpu0.dcache.demand_hits::total         1086845                       # number of demand (read+write) hits
system.cpu0.dcache.overall_hits::switch_cpus0.data         8275                       # number of overall hits
system.cpu0.dcache.overall_hits::switch_cpus_10.data      1078674                       # number of overall hits
system.cpu0.dcache.overall_hits::total        1086949                       # number of overall hits
system.cpu0.dcache.ReadReq_misses::switch_cpus0.data           66                       # number of ReadReq misses
system.cpu0.dcache.ReadReq_misses::switch_cpus_10.data        22407                       # number of ReadReq misses
system.cpu0.dcache.ReadReq_misses::total        22473                       # number of ReadReq misses
system.cpu0.dcache.WriteReq_misses::switch_cpus0.data           58                       # number of WriteReq misses
system.cpu0.dcache.WriteReq_misses::switch_cpus_10.data         8420                       # number of WriteReq misses
system.cpu0.dcache.WriteReq_misses::total         8478                       # number of WriteReq misses
system.cpu0.dcache.SoftPFReq_misses::switch_cpus_10.data          440                       # number of SoftPFReq misses
system.cpu0.dcache.SoftPFReq_misses::total          440                       # number of SoftPFReq misses
system.cpu0.dcache.demand_misses::switch_cpus0.data          124                       # number of demand (read+write) misses
system.cpu0.dcache.demand_misses::switch_cpus_10.data        30827                       # number of demand (read+write) misses
system.cpu0.dcache.demand_misses::total         30951                       # number of demand (read+write) misses
system.cpu0.dcache.overall_misses::switch_cpus0.data          124                       # number of overall misses
system.cpu0.dcache.overall_misses::switch_cpus_10.data        31267                       # number of overall misses
system.cpu0.dcache.overall_misses::total        31391                       # number of overall misses
system.cpu0.dcache.ReadReq_miss_latency::switch_cpus_10.data    233769500                       # number of ReadReq miss cycles
system.cpu0.dcache.ReadReq_miss_latency::total    233769500                       # number of ReadReq miss cycles
system.cpu0.dcache.WriteReq_miss_latency::switch_cpus_10.data    113863500                       # number of WriteReq miss cycles
system.cpu0.dcache.WriteReq_miss_latency::total    113863500                       # number of WriteReq miss cycles
system.cpu0.dcache.demand_miss_latency::switch_cpus_10.data    347633000                       # number of demand (read+write) miss cycles
system.cpu0.dcache.demand_miss_latency::total    347633000                       # number of demand (read+write) miss cycles
system.cpu0.dcache.overall_miss_latency::switch_cpus_10.data    347633000                       # number of overall miss cycles
system.cpu0.dcache.overall_miss_latency::total    347633000                       # number of overall miss cycles
system.cpu0.dcache.ReadReq_accesses::switch_cpus0.data         5422                       # number of ReadReq accesses(hits+misses)
system.cpu0.dcache.ReadReq_accesses::switch_cpus_10.data       687652                       # number of ReadReq accesses(hits+misses)
system.cpu0.dcache.ReadReq_accesses::total       693074                       # number of ReadReq accesses(hits+misses)
system.cpu0.dcache.WriteReq_accesses::switch_cpus0.data         2971                       # number of WriteReq accesses(hits+misses)
system.cpu0.dcache.WriteReq_accesses::switch_cpus_10.data       421751                       # number of WriteReq accesses(hits+misses)
system.cpu0.dcache.WriteReq_accesses::total       424722                       # number of WriteReq accesses(hits+misses)
system.cpu0.dcache.SoftPFReq_accesses::switch_cpus0.data            6                       # number of SoftPFReq accesses(hits+misses)
system.cpu0.dcache.SoftPFReq_accesses::switch_cpus_10.data          538                       # number of SoftPFReq accesses(hits+misses)
system.cpu0.dcache.SoftPFReq_accesses::total          544                       # number of SoftPFReq accesses(hits+misses)
system.cpu0.dcache.demand_accesses::switch_cpus0.data         8393                       # number of demand (read+write) accesses
system.cpu0.dcache.demand_accesses::switch_cpus_10.data      1109403                       # number of demand (read+write) accesses
system.cpu0.dcache.demand_accesses::total      1117796                       # number of demand (read+write) accesses
system.cpu0.dcache.overall_accesses::switch_cpus0.data         8399                       # number of overall (read+write) accesses
system.cpu0.dcache.overall_accesses::switch_cpus_10.data      1109941                       # number of overall (read+write) accesses
system.cpu0.dcache.overall_accesses::total      1118340                       # number of overall (read+write) accesses
system.cpu0.dcache.ReadReq_miss_rate::switch_cpus0.data     0.012173                       # miss rate for ReadReq accesses
system.cpu0.dcache.ReadReq_miss_rate::switch_cpus_10.data     0.032585                       # miss rate for ReadReq accesses
system.cpu0.dcache.ReadReq_miss_rate::total     0.032425                       # miss rate for ReadReq accesses
system.cpu0.dcache.WriteReq_miss_rate::switch_cpus0.data     0.019522                       # miss rate for WriteReq accesses
system.cpu0.dcache.WriteReq_miss_rate::switch_cpus_10.data     0.019964                       # miss rate for WriteReq accesses
system.cpu0.dcache.WriteReq_miss_rate::total     0.019961                       # miss rate for WriteReq accesses
system.cpu0.dcache.SoftPFReq_miss_rate::switch_cpus_10.data     0.817844                       # miss rate for SoftPFReq accesses
system.cpu0.dcache.SoftPFReq_miss_rate::total     0.808824                       # miss rate for SoftPFReq accesses
system.cpu0.dcache.demand_miss_rate::switch_cpus0.data     0.014774                       # miss rate for demand accesses
system.cpu0.dcache.demand_miss_rate::switch_cpus_10.data     0.027787                       # miss rate for demand accesses
system.cpu0.dcache.demand_miss_rate::total     0.027689                       # miss rate for demand accesses
system.cpu0.dcache.overall_miss_rate::switch_cpus0.data     0.014764                       # miss rate for overall accesses
system.cpu0.dcache.overall_miss_rate::switch_cpus_10.data     0.028170                       # miss rate for overall accesses
system.cpu0.dcache.overall_miss_rate::total     0.028069                       # miss rate for overall accesses
system.cpu0.dcache.ReadReq_avg_miss_latency::switch_cpus_10.data 10432.878118                       # average ReadReq miss latency
system.cpu0.dcache.ReadReq_avg_miss_latency::total 10402.238241                       # average ReadReq miss latency
system.cpu0.dcache.WriteReq_avg_miss_latency::switch_cpus_10.data 13522.980998                       # average WriteReq miss latency
system.cpu0.dcache.WriteReq_avg_miss_latency::total 13430.467091                       # average WriteReq miss latency
system.cpu0.dcache.demand_avg_miss_latency::switch_cpus_10.data 11276.900120                       # average overall miss latency
system.cpu0.dcache.demand_avg_miss_latency::total 11231.721108                       # average overall miss latency
system.cpu0.dcache.overall_avg_miss_latency::switch_cpus_10.data 11118.207695                       # average overall miss latency
system.cpu0.dcache.overall_avg_miss_latency::total 11074.288809                       # average overall miss latency
system.cpu0.dcache.blocked_cycles::no_mshrs            0                       # number of cycles access was blocked
system.cpu0.dcache.blocked_cycles::no_targets            0                       # number of cycles access was blocked
system.cpu0.dcache.blocked::no_mshrs                0                       # number of cycles access was blocked
system.cpu0.dcache.blocked::no_targets              0                       # number of cycles access was blocked
system.cpu0.dcache.avg_blocked_cycles::no_mshrs          nan                       # average number of cycles each access was blocked
system.cpu0.dcache.avg_blocked_cycles::no_targets          nan                       # average number of cycles each access was blocked
system.cpu0.dcache.writebacks::writebacks         8834                       # number of writebacks
system.cpu0.dcache.writebacks::total             8834                       # number of writebacks
system.cpu0.dcache.WriteReq_mshr_hits::switch_cpus_10.data            5                       # number of WriteReq MSHR hits
system.cpu0.dcache.WriteReq_mshr_hits::total            5                       # number of WriteReq MSHR hits
system.cpu0.dcache.demand_mshr_hits::switch_cpus_10.data            5                       # number of demand (read+write) MSHR hits
system.cpu0.dcache.demand_mshr_hits::total            5                       # number of demand (read+write) MSHR hits
system.cpu0.dcache.overall_mshr_hits::switch_cpus_10.data            5                       # number of overall MSHR hits
system.cpu0.dcache.overall_mshr_hits::total            5                       # number of overall MSHR hits
system.cpu0.dcache.ReadReq_mshr_misses::switch_cpus_10.data        22407                       # number of ReadReq MSHR misses
system.cpu0.dcache.ReadReq_mshr_misses::total        22407                       # number of ReadReq MSHR misses
system.cpu0.dcache.WriteReq_mshr_misses::switch_cpus_10.data         8415                       # number of WriteReq MSHR misses
system.cpu0.dcache.WriteReq_mshr_misses::total         8415                       # number of WriteReq MSHR misses
system.cpu0.dcache.SoftPFReq_mshr_misses::switch_cpus_10.data          440                       # number of SoftPFReq MSHR misses
system.cpu0.dcache.SoftPFReq_mshr_misses::total          440                       # number of SoftPFReq MSHR misses
system.cpu0.dcache.demand_mshr_misses::switch_cpus_10.data        30822                       # number of demand (read+write) MSHR misses
system.cpu0.dcache.demand_mshr_misses::total        30822                       # number of demand (read+write) MSHR misses
system.cpu0.dcache.overall_mshr_misses::switch_cpus_10.data        31262                       # number of overall MSHR misses
system.cpu0.dcache.overall_mshr_misses::total        31262                       # number of overall MSHR misses
system.cpu0.dcache.ReadReq_mshr_uncacheable::switch_cpus_10.data           30                       # number of ReadReq MSHR uncacheable
system.cpu0.dcache.ReadReq_mshr_uncacheable::total           30                       # number of ReadReq MSHR uncacheable
system.cpu0.dcache.WriteReq_mshr_uncacheable::switch_cpus_10.data          486                       # number of WriteReq MSHR uncacheable
system.cpu0.dcache.WriteReq_mshr_uncacheable::total          486                       # number of WriteReq MSHR uncacheable
system.cpu0.dcache.overall_mshr_uncacheable_misses::switch_cpus_10.data          516                       # number of overall MSHR uncacheable misses
system.cpu0.dcache.overall_mshr_uncacheable_misses::total          516                       # number of overall MSHR uncacheable misses
system.cpu0.dcache.ReadReq_mshr_miss_latency::switch_cpus_10.data    211362500                       # number of ReadReq MSHR miss cycles
system.cpu0.dcache.ReadReq_mshr_miss_latency::total    211362500                       # number of ReadReq MSHR miss cycles
system.cpu0.dcache.WriteReq_mshr_miss_latency::switch_cpus_10.data    104804000                       # number of WriteReq MSHR miss cycles
system.cpu0.dcache.WriteReq_mshr_miss_latency::total    104804000                       # number of WriteReq MSHR miss cycles
system.cpu0.dcache.SoftPFReq_mshr_miss_latency::switch_cpus_10.data      4219500                       # number of SoftPFReq MSHR miss cycles
system.cpu0.dcache.SoftPFReq_mshr_miss_latency::total      4219500                       # number of SoftPFReq MSHR miss cycles
system.cpu0.dcache.demand_mshr_miss_latency::switch_cpus_10.data    316166500                       # number of demand (read+write) MSHR miss cycles
system.cpu0.dcache.demand_mshr_miss_latency::total    316166500                       # number of demand (read+write) MSHR miss cycles
system.cpu0.dcache.overall_mshr_miss_latency::switch_cpus_10.data    320386000                       # number of overall MSHR miss cycles
system.cpu0.dcache.overall_mshr_miss_latency::total    320386000                       # number of overall MSHR miss cycles
system.cpu0.dcache.ReadReq_mshr_uncacheable_latency::switch_cpus_10.data      5008000                       # number of ReadReq MSHR uncacheable cycles
system.cpu0.dcache.ReadReq_mshr_uncacheable_latency::total      5008000                       # number of ReadReq MSHR uncacheable cycles
system.cpu0.dcache.overall_mshr_uncacheable_latency::switch_cpus_10.data      5008000                       # number of overall MSHR uncacheable cycles
system.cpu0.dcache.overall_mshr_uncacheable_latency::total      5008000                       # number of overall MSHR uncacheable cycles
system.cpu0.dcache.ReadReq_mshr_miss_rate::switch_cpus_10.data     0.032585                       # mshr miss rate for ReadReq accesses
system.cpu0.dcache.ReadReq_mshr_miss_rate::total     0.032330                       # mshr miss rate for ReadReq accesses
system.cpu0.dcache.WriteReq_mshr_miss_rate::switch_cpus_10.data     0.019953                       # mshr miss rate for WriteReq accesses
system.cpu0.dcache.WriteReq_mshr_miss_rate::total     0.019813                       # mshr miss rate for WriteReq accesses
system.cpu0.dcache.SoftPFReq_mshr_miss_rate::switch_cpus_10.data     0.817844                       # mshr miss rate for SoftPFReq accesses
system.cpu0.dcache.SoftPFReq_mshr_miss_rate::total     0.808824                       # mshr miss rate for SoftPFReq accesses
system.cpu0.dcache.demand_mshr_miss_rate::switch_cpus_10.data     0.027783                       # mshr miss rate for demand accesses
system.cpu0.dcache.demand_mshr_miss_rate::total     0.027574                       # mshr miss rate for demand accesses
system.cpu0.dcache.overall_mshr_miss_rate::switch_cpus_10.data     0.028165                       # mshr miss rate for overall accesses
system.cpu0.dcache.overall_mshr_miss_rate::total     0.027954                       # mshr miss rate for overall accesses
system.cpu0.dcache.ReadReq_avg_mshr_miss_latency::switch_cpus_10.data  9432.878118                       # average ReadReq mshr miss latency
system.cpu0.dcache.ReadReq_avg_mshr_miss_latency::total  9432.878118                       # average ReadReq mshr miss latency
[...]
system.tol2bus.pkt_count_system.cpu4.icache.mem_side::system.l2.cpu_side        45084                       # Packet count per connected master and slave (bytes)
system.tol2bus.pkt_count_system.cpu4.dcache.mem_side::system.l2.cpu_side        37999                       # Packet count per connected master and slave (bytes)
system.tol2bus.pkt_count_system.cpu4.itb_walker_cache.mem_side::system.l2.cpu_side          230                       # Packet count per connected master and slave (bytes)
system.tol2bus.pkt_count_system.cpu4.dtb_walker_cache.mem_side::system.l2.cpu_side          471                       # Packet count per connected master and slave (bytes)
system.tol2bus.pkt_count_system.cpu5.icache.mem_side::system.l2.cpu_side        34863                       # Packet count per connected master and slave (bytes)
system.tol2bus.pkt_count_system.cpu5.dcache.mem_side::system.l2.cpu_side        45471                       # Packet count per connected master and slave (bytes)
system.tol2bus.pkt_count_system.cpu5.itb_walker_cache.mem_side::system.l2.cpu_side           11                       # Packet count per connected master and slave (bytes)
system.tol2bus.pkt_count_system.cpu5.dtb_walker_cache.mem_side::system.l2.cpu_side          245                       # Packet count per connected master and slave (bytes)
system.tol2bus.pkt_count_system.cpu6.icache.mem_side::system.l2.cpu_side        39621                       # Packet count per connected master and slave (bytes)
system.tol2bus.pkt_count_system.cpu6.dcache.mem_side::system.l2.cpu_side        55369                       # Packet count per connected master and slave (bytes)
system.tol2bus.pkt_count_system.cpu6.itb_walker_cache.mem_side::system.l2.cpu_side           47                       # Packet count per connected master and slave (bytes)
system.tol2bus.pkt_count_system.cpu6.dtb_walker_cache.mem_side::system.l2.cpu_side          264                       # Packet count per connected master and slave (bytes)
system.tol2bus.pkt_count_system.cpu7.icache.mem_side::system.l2.cpu_side        38808                       # Packet count per connected master and slave (bytes)
system.tol2bus.pkt_count_system.cpu7.dcache.mem_side::system.l2.cpu_side        52217                       # Packet count per connected master and slave (bytes)
system.tol2bus.pkt_count_system.cpu7.itb_walker_cache.mem_side::system.l2.cpu_side           99                       # Packet count per connected master and slave (bytes)
system.tol2bus.pkt_count_system.cpu7.dtb_walker_cache.mem_side::system.l2.cpu_side          239                       # Packet count per connected master and slave (bytes)
system.tol2bus.pkt_count::total                764639                       # Packet count per connected master and slave (bytes)
system.tol2bus.pkt_size_system.cpu0.icache.mem_side::system.l2.cpu_side      2747520                       # Cumulative packet size per connected master and slave (bytes)
system.tol2bus.pkt_size_system.cpu0.dcache.mem_side::system.l2.cpu_side      1375578                       # Cumulative packet size per connected master and slave (bytes)
system.tol2bus.pkt_size_system.cpu0.itb_walker_cache.mem_side::system.l2.cpu_side        11968                       # Cumulative packet size per connected master and slave (bytes)
system.tol2bus.pkt_size_system.cpu0.dtb_walker_cache.mem_side::system.l2.cpu_side        15936                       # Cumulative packet size per connected master and slave (bytes)
system.tol2bus.pkt_size_system.cpu1.icache.mem_side::system.l2.cpu_side      1715328                       # Cumulative packet size per connected master and slave (bytes)
system.tol2bus.pkt_size_system.cpu1.dcache.mem_side::system.l2.cpu_side       913862                       # Cumulative packet size per connected master and slave (bytes)
system.tol2bus.pkt_size_system.cpu1.itb_walker_cache.mem_side::system.l2.cpu_side         2432                       # Cumulative packet size per connected master and slave (bytes)
system.tol2bus.pkt_size_system.cpu1.dtb_walker_cache.mem_side::system.l2.cpu_side         9216                       # Cumulative packet size per connected master and slave (bytes)
system.tol2bus.pkt_size_system.cpu2.icache.mem_side::system.l2.cpu_side      1919616                       # Cumulative packet size per connected master and slave (bytes)
system.tol2bus.pkt_size_system.cpu2.dcache.mem_side::system.l2.cpu_side       993879                       # Cumulative packet size per connected master and slave (bytes)
system.tol2bus.pkt_size_system.cpu2.itb_walker_cache.mem_side::system.l2.cpu_side         9920                       # Cumulative packet size per connected master and slave (bytes)
system.tol2bus.pkt_size_system.cpu2.dtb_walker_cache.mem_side::system.l2.cpu_side        12480                       # Cumulative packet size per connected master and slave (bytes)
system.tol2bus.pkt_size_system.cpu3.icache.mem_side::system.l2.cpu_side      1328512                       # Cumulative packet size per connected master and slave (bytes)
system.tol2bus.pkt_size_system.cpu3.dcache.mem_side::system.l2.cpu_side      1003343                       # Cumulative packet size per connected master and slave (bytes)
system.tol2bus.pkt_size_system.cpu3.itb_walker_cache.mem_side::system.l2.cpu_side          128                       # Cumulative packet size per connected master and slave (bytes)
system.tol2bus.pkt_size_system.cpu3.dtb_walker_cache.mem_side::system.l2.cpu_side         4160                       # Cumulative packet size per connected master and slave (bytes)
system.tol2bus.pkt_size_system.cpu4.icache.mem_side::system.l2.cpu_side      1923584                       # Cumulative packet size per connected master and slave (bytes)
system.tol2bus.pkt_size_system.cpu4.dcache.mem_side::system.l2.cpu_side       938190                       # Cumulative packet size per connected master and slave (bytes)
system.tol2bus.pkt_size_system.cpu4.itb_walker_cache.mem_side::system.l2.cpu_side         3904                       # Cumulative packet size per connected master and slave (bytes)
system.tol2bus.pkt_size_system.cpu4.dtb_walker_cache.mem_side::system.l2.cpu_side         7616                       # Cumulative packet size per connected master and slave (bytes)
system.tol2bus.pkt_size_system.cpu5.icache.mem_side::system.l2.cpu_side      1487488                       # Cumulative packet size per connected master and slave (bytes)
system.tol2bus.pkt_size_system.cpu5.dcache.mem_side::system.l2.cpu_side       781998                       # Cumulative packet size per connected master and slave (bytes)
system.tol2bus.pkt_size_system.cpu5.itb_walker_cache.mem_side::system.l2.cpu_side          192                       # Cumulative packet size per connected master and slave (bytes)
system.tol2bus.pkt_size_system.cpu5.dtb_walker_cache.mem_side::system.l2.cpu_side         4544                       # Cumulative packet size per connected master and slave (bytes)
system.tol2bus.pkt_size_system.cpu6.icache.mem_side::system.l2.cpu_side      1690496                       # Cumulative packet size per connected master and slave (bytes)
system.tol2bus.pkt_size_system.cpu6.dcache.mem_side::system.l2.cpu_side      1001172                       # Cumulative packet size per connected master and slave (bytes)
system.tol2bus.pkt_size_system.cpu6.itb_walker_cache.mem_side::system.l2.cpu_side          320                       # Cumulative packet size per connected master and slave (bytes)
system.tol2bus.pkt_size_system.cpu6.dtb_walker_cache.mem_side::system.l2.cpu_side         4608                       # Cumulative packet size per connected master and slave (bytes)
system.tol2bus.pkt_size_system.cpu7.icache.mem_side::system.l2.cpu_side      1655808                       # Cumulative packet size per connected master and slave (bytes)
system.tol2bus.pkt_size_system.cpu7.dcache.mem_side::system.l2.cpu_side       857460                       # Cumulative packet size per connected master and slave (bytes)
system.tol2bus.pkt_size_system.cpu7.itb_walker_cache.mem_side::system.l2.cpu_side          192                       # Cumulative packet size per connected master and slave (bytes)
system.tol2bus.pkt_size_system.cpu7.dtb_walker_cache.mem_side::system.l2.cpu_side         4864                       # Cumulative packet size per connected master and slave (bytes)
system.tol2bus.pkt_size::total               22426314                       # Cumulative packet size per connected master and slave (bytes)
system.tol2bus.snoops                          136321                       # Total snoops (count)
system.tol2bus.snoopTraffic                   7012672                       # Total snoop traffic (bytes)
system.tol2bus.snoop_fanout::samples           343336                       # Request fanout histogram
system.tol2bus.snoop_fanout::mean            2.538108                       # Request fanout histogram
system.tol2bus.snoop_fanout::stdev           2.800804                       # Request fanout histogram
system.tol2bus.snoop_fanout::underflows             0      0.00%      0.00% # Request fanout histogram
system.tol2bus.snoop_fanout::0                 104739     30.51%     30.51% # Request fanout histogram
system.tol2bus.snoop_fanout::1                  90404     26.33%     56.84% # Request fanout histogram
system.tol2bus.snoop_fanout::2                  33638      9.80%     66.63% # Request fanout histogram
system.tol2bus.snoop_fanout::3                   9074      2.64%     69.28% # Request fanout histogram
system.tol2bus.snoop_fanout::4                   5921      1.72%     71.00% # Request fanout histogram
system.tol2bus.snoop_fanout::5                   5224      1.52%     72.52% # Request fanout histogram
system.tol2bus.snoop_fanout::6                  29300      8.53%     81.06% # Request fanout histogram
system.tol2bus.snoop_fanout::7                  64283     18.72%     99.78% # Request fanout histogram
system.tol2bus.snoop_fanout::8                     37      0.01%     99.79% # Request fanout histogram
system.tol2bus.snoop_fanout::9                     48      0.01%     99.81% # Request fanout histogram
system.tol2bus.snoop_fanout::10                    36      0.01%     99.82% # Request fanout histogram
system.tol2bus.snoop_fanout::11                    52      0.02%     99.83% # Request fanout histogram
system.tol2bus.snoop_fanout::12                    70      0.02%     99.85% # Request fanout histogram
system.tol2bus.snoop_fanout::13                    77      0.02%     99.87% # Request fanout histogram
system.tol2bus.snoop_fanout::14                    60      0.02%     99.89% # Request fanout histogram
system.tol2bus.snoop_fanout::15                    70      0.02%     99.91% # Request fanout histogram
system.tol2bus.snoop_fanout::16                     6      0.00%     99.91% # Request fanout histogram
system.tol2bus.snoop_fanout::17                    37      0.01%     99.92% # Request fanout histogram
system.tol2bus.snoop_fanout::18                   119      0.03%     99.96% # Request fanout histogram
system.tol2bus.snoop_fanout::19                   141      0.04%    100.00% # Request fanout histogram
system.tol2bus.snoop_fanout::20                     0      0.00%    100.00% # Request fanout histogram
system.tol2bus.snoop_fanout::21                     0      0.00%    100.00% # Request fanout histogram
system.tol2bus.snoop_fanout::22                     0      0.00%    100.00% # Request fanout histogram
system.tol2bus.snoop_fanout::23                     0      0.00%    100.00% # Request fanout histogram
system.tol2bus.snoop_fanout::24                     0      0.00%    100.00% # Request fanout histogram
system.tol2bus.snoop_fanout::25                     0      0.00%    100.00% # Request fanout histogram
system.tol2bus.snoop_fanout::26                     0      0.00%    100.00% # Request fanout histogram
system.tol2bus.snoop_fanout::27                     0      0.00%    100.00% # Request fanout histogram
system.tol2bus.snoop_fanout::28                     0      0.00%    100.00% # Request fanout histogram
system.tol2bus.snoop_fanout::29                     0      0.00%    100.00% # Request fanout histogram
system.tol2bus.snoop_fanout::30                     0      0.00%    100.00% # Request fanout histogram
system.tol2bus.snoop_fanout::31                     0      0.00%    100.00% # Request fanout histogram
system.tol2bus.snoop_fanout::32                     0      0.00%    100.00% # Request fanout histogram
system.tol2bus.snoop_fanout::overflows              0      0.00%    100.00% # Request fanout histogram
system.tol2bus.snoop_fanout::min_value              0                       # Request fanout histogram
system.tol2bus.snoop_fanout::max_value             19                       # Request fanout histogram
system.tol2bus.snoop_fanout::total             343336                       # Request fanout histogram
system.tol2bus.reqLayer0.occupancy          439328499                       # Layer occupancy (ticks)
system.tol2bus.reqLayer0.utilization              0.0                       # Layer utilization (%)
system.tol2bus.snoopLayer0.occupancy           168469                       # Layer occupancy (ticks)
system.tol2bus.snoopLayer0.utilization            0.0                       # Layer utilization (%)
system.tol2bus.respLayer0.occupancy          31975993                       # Layer occupancy (ticks)
system.tol2bus.respLayer0.utilization             0.0                       # Layer utilization (%)
system.tol2bus.respLayer1.occupancy          41889497                       # Layer occupancy (ticks)
system.tol2bus.respLayer1.utilization             0.0                       # Layer utilization (%)
system.tol2bus.respLayer2.occupancy            352500                       # Layer occupancy (ticks)
system.tol2bus.respLayer2.utilization             0.0                       # Layer utilization (%)
system.tol2bus.respLayer3.occupancy            471000                       # Layer occupancy (ticks)
system.tol2bus.respLayer3.utilization             0.0                       # Layer utilization (%)
system.tol2bus.respLayer4.occupancy          20102997                       # Layer occupancy (ticks)
system.tol2bus.respLayer4.utilization             0.0                       # Layer utilization (%)
system.tol2bus.respLayer5.occupancy          35124995                       # Layer occupancy (ticks)
system.tol2bus.respLayer5.utilization             0.0                       # Layer utilization (%)
system.tol2bus.respLayer6.occupancy            321000                       # Layer occupancy (ticks)
system.tol2bus.respLayer6.utilization             0.0                       # Layer utilization (%)
system.tol2bus.respLayer7.occupancy            336000                       # Layer occupancy (ticks)
system.tol2bus.respLayer7.utilization             0.0                       # Layer utilization (%)
system.tol2bus.respLayer8.occupancy          22497496                       # Layer occupancy (ticks)
system.tol2bus.respLayer8.utilization             0.0                       # Layer utilization (%)
system.tol2bus.respLayer9.occupancy          36647991                       # Layer occupancy (ticks)
system.tol2bus.respLayer9.utilization             0.0                       # Layer utilization (%)
system.tol2bus.respLayer10.occupancy           432000                       # Layer occupancy (ticks)
system.tol2bus.respLayer10.utilization            0.0                       # Layer utilization (%)
system.tol2bus.respLayer11.occupancy           414000                       # Layer occupancy (ticks)
system.tol2bus.respLayer11.utilization            0.0                       # Layer utilization (%)
system.tol2bus.respLayer12.occupancy         15568999                       # Layer occupancy (ticks)
system.tol2bus.respLayer12.utilization            0.0                       # Layer utilization (%)
system.tol2bus.respLayer13.occupancy         37582996                       # Layer occupancy (ticks)
system.tol2bus.respLayer13.utilization            0.0                       # Layer utilization (%)
system.tol2bus.respLayer14.occupancy             3000                       # Layer occupancy (ticks)
system.tol2bus.respLayer14.utilization            0.0                       # Layer utilization (%)
system.tol2bus.respLayer15.occupancy            93000                       # Layer occupancy (ticks)
system.tol2bus.respLayer15.utilization            0.0                       # Layer utilization (%)
system.tol2bus.respLayer16.occupancy         22542998                       # Layer occupancy (ticks)
system.tol2bus.respLayer16.utilization            0.0                       # Layer utilization (%)
system.tol2bus.respLayer17.occupancy         23125997                       # Layer occupancy (ticks)
system.tol2bus.respLayer17.utilization            0.0                       # Layer utilization (%)
system.tol2bus.respLayer18.occupancy           139500                       # Layer occupancy (ticks)
system.tol2bus.respLayer18.utilization            0.0                       # Layer utilization (%)
system.tol2bus.respLayer19.occupancy           307999                       # Layer occupancy (ticks)
system.tol2bus.respLayer19.utilization            0.0                       # Layer utilization (%)
system.tol2bus.respLayer20.occupancy         17432498                       # Layer occupancy (ticks)
system.tol2bus.respLayer20.utilization            0.0                       # Layer utilization (%)
system.tol2bus.respLayer21.occupancy         31591997                       # Layer occupancy (ticks)
system.tol2bus.respLayer21.utilization            0.0                       # Layer utilization (%)
system.tol2bus.respLayer22.occupancy            10500                       # Layer occupancy (ticks)
system.tol2bus.respLayer22.utilization            0.0                       # Layer utilization (%)
system.tol2bus.respLayer23.occupancy           145500                       # Layer occupancy (ticks)
system.tol2bus.respLayer23.utilization            0.0                       # Layer utilization (%)
system.tol2bus.respLayer24.occupancy         19812496                       # Layer occupancy (ticks)
system.tol2bus.respLayer24.utilization            0.0                       # Layer utilization (%)
system.tol2bus.respLayer25.occupancy         38140498                       # Layer occupancy (ticks)
system.tol2bus.respLayer25.utilization            0.0                       # Layer utilization (%)
system.tol2bus.respLayer26.occupancy            33000                       # Layer occupancy (ticks)
system.tol2bus.respLayer26.utilization            0.0                       # Layer utilization (%)
system.tol2bus.respLayer27.occupancy           157500                       # Layer occupancy (ticks)
system.tol2bus.respLayer27.utilization            0.0                       # Layer utilization (%)
system.tol2bus.respLayer28.occupancy         19404499                       # Layer occupancy (ticks)
system.tol2bus.respLayer28.utilization            0.0                       # Layer utilization (%)
system.tol2bus.respLayer29.occupancy         36749998                       # Layer occupancy (ticks)
system.tol2bus.respLayer29.utilization            0.0                       # Layer utilization (%)
system.tol2bus.respLayer30.occupancy            82500                       # Layer occupancy (ticks)
system.tol2bus.respLayer30.utilization            0.0                       # Layer utilization (%)
system.tol2bus.respLayer31.occupancy           136500                       # Layer occupancy (ticks)
system.tol2bus.respLayer31.utilization            0.0                       # Layer utilization (%)

---------- End Simulation Statistics   ----------
