
---------- Begin Simulation Statistics ----------
sim_seconds                                  1.864987                       # Number of seconds simulated
sim_ticks                                1864986500500                       # Number of ticks simulated
final_tick                               6665161708500                       # Number of ticks from beginning of simulation (restored from checkpoints and never reset)
sim_freq                                 1000000000000                       # Frequency of simulated ticks
host_inst_rate                                1212044                       # Simulator instruction rate (inst/s)
host_op_rate                                  2674790                       # Simulator op (including micro ops) rate (op/s)
host_tick_rate                             1499455324                       # Simulator tick rate (ticks/s)
host_mem_usage                                2313036                       # Number of bytes of host memory used
host_seconds                                  1243.78                       # Real time elapsed on the host
sim_insts                                  1507511327                       # Number of instructions simulated
sim_ops                                    3326839691                       # Number of ops (including micro ops) simulated
system.voltage_domain.voltage                       1                       # Voltage in Volts
system.clk_domain.clock                          1000                       # Clock period in ticks
system.mem_ctrls.pwrStateResidencyTicks::UNDEFINED 6665161708500                       # Cumulative time (in ticks) in various power states
system.mem_ctrls.bytes_read::l2.prefetcher       929536                       # Number of bytes read from this memory
system.mem_ctrls.bytes_read::switch_cpus0.inst           64                       # Number of bytes read from this memory
system.mem_ctrls.bytes_read::switch_cpus0.data           64                       # Number of bytes read from this memory
system.mem_ctrls.bytes_read::switch_cpus_10.inst         3456                       # Number of bytes read from this memory
system.mem_ctrls.bytes_read::switch_cpus_10.data        18304                       # Number of bytes read from this memory
system.mem_ctrls.bytes_read::switch_cpus_11.inst         3136                       # Number of bytes read from this memory
system.mem_ctrls.bytes_read::switch_cpus_11.data        18048                       # Number of bytes read from this memory
system.mem_ctrls.bytes_read::switch_cpus_12.inst          448                       # Number of bytes read from this memory
system.mem_ctrls.bytes_read::switch_cpus_12.data        12288                       # Number of bytes read from this memory
system.mem_ctrls.bytes_read::switch_cpus_13.dtb.walker           64                       # Number of bytes read from this memory
system.mem_ctrls.bytes_read::switch_cpus_13.inst          320                       # Number of bytes read from this memory
system.mem_ctrls.bytes_read::switch_cpus_13.data        10624                       # Number of bytes read from this memory
system.mem_ctrls.bytes_read::switch_cpus_14.inst          960                       # Number of bytes read from this memory
system.mem_ctrls.bytes_read::switch_cpus_14.data        11328                       # Number of bytes read from this memory
system.mem_ctrls.bytes_read::switch_cpus_15.inst           64                       # Number of bytes read from this memory
system.mem_ctrls.bytes_read::switch_cpus_15.data        12416                       # Number of bytes read from this memory
system.mem_ctrls.bytes_read::switch_cpus_16.inst          320                       # Number of bytes read from this memory
system.mem_ctrls.bytes_read::switch_cpus_16.data         9728                       # Number of bytes read from this memory
system.mem_ctrls.bytes_read::switch_cpus_17.inst          768                       # Number of bytes read from this memory
system.mem_ctrls.bytes_read::switch_cpus_17.data        20992                       # Number of bytes read from this memory
system.mem_ctrls.bytes_read::total            1052928                       # Number of bytes read from this memory
system.mem_ctrls.bytes_inst_read::switch_cpus0.inst           64                       # Number of instructions bytes read from this memory
system.mem_ctrls.bytes_inst_read::switch_cpus_10.inst         3456                       # Number of instructions bytes read from this memory
system.mem_ctrls.bytes_inst_read::switch_cpus_11.inst         3136                       # Number of instructions bytes read from this memory
system.mem_ctrls.bytes_inst_read::switch_cpus_12.inst          448                       # Number of instructions bytes read from this memory
system.mem_ctrls.bytes_inst_read::switch_cpus_13.inst          320                       # Number of instructions bytes read from this memory
system.mem_ctrls.bytes_inst_read::switch_cpus_14.inst          960                       # Number of instructions bytes read from this memory
system.mem_ctrls.bytes_inst_read::switch_cpus_15.inst           64                       # Number of instructions bytes read from this memory
system.mem_ctrls.bytes_inst_read::switch_cpus_16.inst          320                       # Number of instructions bytes read from this memory
system.mem_ctrls.bytes_inst_read::switch_cpus_17.inst          768                       # Number of instructions bytes read from this memory
system.mem_ctrls.bytes_inst_read::total          9536                       # Number of instructions bytes read from this memory
system.mem_ctrls.bytes_written::writebacks      1397568                       # Number of bytes written to this memory
system.mem_ctrls.bytes_written::total         1397568                       # Number of bytes written to this memory
system.mem_ctrls.num_reads::l2.prefetcher        14524                       # Number of read requests responded to by this memory
system.mem_ctrls.num_reads::switch_cpus0.inst            1                       # Number of read requests responded to by this memory
system.mem_ctrls.num_reads::switch_cpus0.data            1                       # Number of read requests responded to by this memory
system.mem_ctrls.num_reads::switch_cpus_10.inst           54                       # Number of read requests responded to by this memory
system.mem_ctrls.num_reads::switch_cpus_10.data          286                       # Number of read requests responded to by this memory
system.mem_ctrls.num_reads::switch_cpus_11.inst           49                       # Number of read requests responded to by this memory
system.mem_ctrls.num_reads::switch_cpus_11.data          282                       # Number of read requests responded to by this memory
system.mem_ctrls.num_reads::switch_cpus_12.inst            7                       # Number of read requests responded to by this memory
system.mem_ctrls.num_reads::switch_cpus_12.data          192                       # Number of read requests responded to by this memory
system.mem_ctrls.num_reads::switch_cpus_13.dtb.walker            1                       # Number of read requests responded to by this memory
system.mem_ctrls.num_reads::switch_cpus_13.inst            5                       # Number of read requests responded to by this memory
system.mem_ctrls.num_reads::switch_cpus_13.data          166                       # Number of read requests responded to by this memory
system.mem_ctrls.num_reads::switch_cpus_14.inst           15                       # Number of read requests responded to by this memory
system.mem_ctrls.num_reads::switch_cpus_14.data          177                       # Number of read requests responded to by this memory
system.mem_ctrls.num_reads::switch_cpus_15.inst            1                       # Number of read requests responded to by this memory
system.mem_ctrls.num_reads::switch_cpus_15.data          194                       # Number of read requests responded to by this memory
system.mem_ctrls.num_reads::switch_cpus_16.inst            5                       # Number of read requests responded to by this memory
system.mem_ctrls.num_reads::switch_cpus_16.data          152                       # Number of read requests responded to by this memory
system.mem_ctrls.num_reads::switch_cpus_17.inst           12                       # Number of read requests responded to by this memory
system.mem_ctrls.num_reads::switch_cpus_17.data          328                       # Number of read requests responded to by this memory
system.mem_ctrls.num_reads::total               16452                       # Number of read requests responded to by this memory
system.mem_ctrls.num_writes::writebacks         21837                       # Number of write requests responded to by this memory
system.mem_ctrls.num_writes::total              21837                       # Number of write requests responded to by this memory
system.mem_ctrls.bw_read::l2.prefetcher        498414                       # Total read bandwidth from this memory (bytes/s)
system.mem_ctrls.bw_read::switch_cpus0.inst           34                       # Total read bandwidth from this memory (bytes/s)
system.mem_ctrls.bw_read::switch_cpus0.data           34                       # Total read bandwidth from this memory (bytes/s)
system.mem_ctrls.bw_read::switch_cpus_10.inst         1853                       # Total read bandwidth from this memory (bytes/s)
system.mem_ctrls.bw_read::switch_cpus_10.data         9815                       # Total read bandwidth from this memory (bytes/s)
system.mem_ctrls.bw_read::switch_cpus_11.inst         1682                       # Total read bandwidth from this memory (bytes/s)
system.mem_ctrls.bw_read::switch_cpus_11.data         9677                       # Total read bandwidth from this memory (bytes/s)
system.mem_ctrls.bw_read::switch_cpus_12.inst          240                       # Total read bandwidth from this memory (bytes/s)
system.mem_ctrls.bw_read::switch_cpus_12.data         6589                       # Total read bandwidth from this memory (bytes/s)
system.mem_ctrls.bw_read::switch_cpus_13.dtb.walker           34                       # Total read bandwidth from this memory (bytes/s)
system.mem_ctrls.bw_read::switch_cpus_13.inst          172                       # Total read bandwidth from this memory (bytes/s)
system.mem_ctrls.bw_read::switch_cpus_13.data         5697                       # Total read bandwidth from this memory (bytes/s)
system.mem_ctrls.bw_read::switch_cpus_14.inst          515                       # Total read bandwidth from this memory (bytes/s)
system.mem_ctrls.bw_read::switch_cpus_14.data         6074                       # Total read bandwidth from this memory (bytes/s)
system.mem_ctrls.bw_read::switch_cpus_15.inst           34                       # Total read bandwidth from this memory (bytes/s)
system.mem_ctrls.bw_read::switch_cpus_15.data         6657                       # Total read bandwidth from this memory (bytes/s)
system.mem_ctrls.bw_read::switch_cpus_16.inst          172                       # Total read bandwidth from this memory (bytes/s)
system.mem_ctrls.bw_read::switch_cpus_16.data         5216                       # Total read bandwidth from this memory (bytes/s)
system.mem_ctrls.bw_read::switch_cpus_17.inst          412                       # Total read bandwidth from this memory (bytes/s)
system.mem_ctrls.bw_read::switch_cpus_17.data        11256                       # Total read bandwidth from this memory (bytes/s)
system.mem_ctrls.bw_read::total                564577                       # Total read bandwidth from this memory (bytes/s)
system.mem_ctrls.bw_inst_read::switch_cpus0.inst           34                       # Instruction read bandwidth from this memory (bytes/s)
system.mem_ctrls.bw_inst_read::switch_cpus_10.inst         1853                       # Instruction read bandwidth from this memory (bytes/s)
system.mem_ctrls.bw_inst_read::switch_cpus_11.inst         1682                       # Instruction read bandwidth from this memory (bytes/s)
system.mem_ctrls.bw_inst_read::switch_cpus_12.inst          240                       # Instruction read bandwidth from this memory (bytes/s)
system.mem_ctrls.bw_inst_read::switch_cpus_13.inst          172                       # Instruction read bandwidth from this memory (bytes/s)
system.mem_ctrls.bw_inst_read::switch_cpus_14.inst          515                       # Instruction read bandwidth from this memory (bytes/s)
system.mem_ctrls.bw_inst_read::switch_cpus_15.inst           34                       # Instruction read bandwidth from this memory (bytes/s)
system.mem_ctrls.bw_inst_read::switch_cpus_16.inst          172                       # Instruction read bandwidth from this memory (bytes/s)
system.mem_ctrls.bw_inst_read::switch_cpus_17.inst          412                       # Instruction read bandwidth from this memory (bytes/s)
system.mem_ctrls.bw_inst_read::total             5113                       # Instruction read bandwidth from this memory (bytes/s)
system.mem_ctrls.bw_write::writebacks          749372                       # Write bandwidth from this memory (bytes/s)
system.mem_ctrls.bw_write::total               749372                       # Write bandwidth from this memory (bytes/s)
system.mem_ctrls.bw_total::writebacks          749372                       # Total bandwidth to/from this memory (bytes/s)
system.mem_ctrls.bw_total::l2.prefetcher       498414                       # Total bandwidth to/from this memory (bytes/s)
system.mem_ctrls.bw_total::switch_cpus0.inst           34                       # Total bandwidth to/from this memory (bytes/s)
system.mem_ctrls.bw_total::switch_cpus0.data           34                       # Total bandwidth to/from this memory (bytes/s)
system.mem_ctrls.bw_total::switch_cpus_10.inst         1853                       # Total bandwidth to/from this memory (bytes/s)
system.mem_ctrls.bw_total::switch_cpus_10.data         9815                       # Total bandwidth to/from this memory (bytes/s)
system.mem_ctrls.bw_total::switch_cpus_11.inst         1682                       # Total bandwidth to/from this memory (bytes/s)
system.mem_ctrls.bw_total::switch_cpus_11.data         9677                       # Total bandwidth to/from this memory (bytes/s)
system.mem_ctrls.bw_total::switch_cpus_12.inst          240                       # Total bandwidth to/from this memory (bytes/s)
system.mem_ctrls.bw_total::switch_cpus_12.data         6589                       # Total bandwidth to/from this memory (bytes/s)
system.mem_ctrls.bw_total::switch_cpus_13.dtb.walker           34                       # Total bandwidth to/from this memory (bytes/s)
system.mem_ctrls.bw_total::switch_cpus_13.inst          172                       # Total bandwidth to/from this memory (bytes/s)
system.mem_ctrls.bw_total::switch_cpus_13.data         5697                       # Total bandwidth to/from this memory (bytes/s)
system.mem_ctrls.bw_total::switch_cpus_14.inst          515                       # Total bandwidth to/from this memory (bytes/s)
system.mem_ctrls.bw_total::switch_cpus_14.data         6074                       # Total bandwidth to/from this memory (bytes/s)
system.mem_ctrls.bw_total::switch_cpus_15.inst           34                       # Total bandwidth to/from this memory (bytes/s)
system.mem_ctrls.bw_total::switch_cpus_15.data         6657                       # Total bandwidth to/from this memory (bytes/s)
system.mem_ctrls.bw_total::switch_cpus_16.inst          172                       # Total bandwidth to/from this memory (bytes/s)
system.mem_ctrls.bw_total::switch_cpus_16.data         5216                       # Total bandwidth to/from this memory (bytes/s)
system.mem_ctrls.bw_total::switch_cpus_17.inst          412                       # Total bandwidth to/from this memory (bytes/s)
system.mem_ctrls.bw_total::switch_cpus_17.data        11256                       # Total bandwidth to/from this memory (bytes/s)
system.mem_ctrls.bw_total::total              1313948                       # Total bandwidth to/from this memory (bytes/s)
system.mem_ctrls.readReqs                       16450                       # Number of read requests accepted
system.mem_ctrls.writeReqs                      21835                       # Number of write requests accepted
system.mem_ctrls.readBursts                     16450                       # Number of DRAM read bursts, including those serviced by the write queue
system.mem_ctrls.writeBursts                    21835                       # Number of DRAM write bursts, including those merged in the write queue
system.mem_ctrls.bytesReadDRAM                1048384                       # Total number of bytes read from DRAM
system.mem_ctrls.bytesReadWrQ                    4416                       # Total number of bytes read from write queue
system.mem_ctrls.bytesWritten                 1396160                       # Total number of bytes written to DRAM
system.mem_ctrls.bytesReadSys                 1052800                       # Total read bytes from the system interface side
system.mem_ctrls.bytesWrittenSys              1397440                       # Total written bytes from the system interface side
system.mem_ctrls.servicedByWrQ                     69                       # Number of DRAM read bursts serviced by the write queue
system.mem_ctrls.mergedWrBursts                     0                       # Number of DRAM write bursts merged with an existing one
system.mem_ctrls.neitherReadNorWriteReqs            0                       # Number of requests that are neither read nor write
system.mem_ctrls.perBankRdBursts::0              1131                       # Per bank write bursts
system.mem_ctrls.perBankRdBursts::1               750                       # Per bank write bursts
system.mem_ctrls.perBankRdBursts::2               850                       # Per bank write bursts
system.mem_ctrls.perBankRdBursts::3               780                       # Per bank write bursts
system.mem_ctrls.perBankRdBursts::4              1345                       # Per bank write bursts
system.mem_ctrls.perBankRdBursts::5              1241                       # Per bank write bursts
system.mem_ctrls.perBankRdBursts::6              1023                       # Per bank write bursts
system.mem_ctrls.perBankRdBursts::7               980                       # Per bank write bursts
system.mem_ctrls.perBankRdBursts::8               994                       # Per bank write bursts
system.mem_ctrls.perBankRdBursts::9              1008                       # Per bank write bursts
system.mem_ctrls.perBankRdBursts::10              879                       # Per bank write bursts
system.mem_ctrls.perBankRdBursts::11              700                       # Per bank write bursts
system.mem_ctrls.perBankRdBursts::12             1528                       # Per bank write bursts
system.mem_ctrls.perBankRdBursts::13             1128                       # Per bank write bursts
system.mem_ctrls.perBankRdBursts::14             1130                       # Per bank write bursts
system.mem_ctrls.perBankRdBursts::15              914                       # Per bank write bursts
system.mem_ctrls.perBankWrBursts::0              1359                       # Per bank write bursts
system.mem_ctrls.perBankWrBursts::1              1110                       # Per bank write bursts
system.mem_ctrls.perBankWrBursts::2              1131                       # Per bank write bursts
system.mem_ctrls.perBankWrBursts::3              1106                       # Per bank write bursts
system.mem_ctrls.perBankWrBursts::4              1654                       # Per bank write bursts
system.mem_ctrls.perBankWrBursts::5              1516                       # Per bank write bursts
system.mem_ctrls.perBankWrBursts::6              1113                       # Per bank write bursts
system.mem_ctrls.perBankWrBursts::7              1190                       # Per bank write bursts
system.mem_ctrls.perBankWrBursts::8              1346                       # Per bank write bursts
system.mem_ctrls.perBankWrBursts::9              1555                       # Per bank write bursts
system.mem_ctrls.perBankWrBursts::10             1265                       # Per bank write bursts
system.mem_ctrls.perBankWrBursts::11             1364                       # Per bank write bursts
system.mem_ctrls.perBankWrBursts::12             1786                       # Per bank write bursts
system.mem_ctrls.perBankWrBursts::13             1553                       # Per bank write bursts
system.mem_ctrls.perBankWrBursts::14             1595                       # Per bank write bursts
system.mem_ctrls.perBankWrBursts::15             1172                       # Per bank write bursts
system.mem_ctrls.numRdRetry                         0                       # Number of times read queue was full causing retry
system.mem_ctrls.numWrRetry                         6                       # Number of times write queue was full causing retry
system.mem_ctrls.totGap                  1720654020503                       # Total gap between requests
system.mem_ctrls.readPktSize::0                     0                       # Read request sizes (log2)
system.mem_ctrls.readPktSize::1                     0                       # Read request sizes (log2)
system.mem_ctrls.readPktSize::2                     0                       # Read request sizes (log2)
system.mem_ctrls.readPktSize::3                     0                       # Read request sizes (log2)
system.mem_ctrls.readPktSize::4                     0                       # Read request sizes (log2)
system.mem_ctrls.readPktSize::5                     0                       # Read request sizes (log2)
system.mem_ctrls.readPktSize::6                 16450                       # Read request sizes (log2)
system.mem_ctrls.writePktSize::0                    0                       # Write request sizes (log2)
system.mem_ctrls.writePktSize::1                    0                       # Write request sizes (log2)
system.mem_ctrls.writePktSize::2                    0                       # Write request sizes (log2)
system.mem_ctrls.writePktSize::3                    0                       # Write request sizes (log2)
system.mem_ctrls.writePktSize::4                    0                       # Write request sizes (log2)
system.mem_ctrls.writePktSize::5                    0                       # Write request sizes (log2)
system.mem_ctrls.writePktSize::6                21835                       # Write request sizes (log2)
system.mem_ctrls.rdQLenPdf::0                    5162                       # What read queue length does an incoming req see
system.mem_ctrls.rdQLenPdf::1                    3202                       # What read queue length does an incoming req see
system.mem_ctrls.rdQLenPdf::2                    2613                       # What read queue length does an incoming req see
system.mem_ctrls.rdQLenPdf::3                    2233                       # What read queue length does an incoming req see
system.mem_ctrls.rdQLenPdf::4                    1738                       # What read queue length does an incoming req see
system.mem_ctrls.rdQLenPdf::5                     523                       # What read queue length does an incoming req see
system.mem_ctrls.rdQLenPdf::6                     346                       # What read queue length does an incoming req see
system.mem_ctrls.rdQLenPdf::7                     218                       # What read queue length does an incoming req see
system.mem_ctrls.rdQLenPdf::8                     130                       # What read queue length does an incoming req see
system.mem_ctrls.rdQLenPdf::9                      69                       # What read queue length does an incoming req see
system.mem_ctrls.rdQLenPdf::10                     47                       # What read queue length does an incoming req see
system.mem_ctrls.rdQLenPdf::11                     47                       # What read queue length does an incoming req see
system.mem_ctrls.rdQLenPdf::12                     21                       # What read queue length does an incoming req see
system.mem_ctrls.rdQLenPdf::13                      9                       # What read queue length does an incoming req see
system.mem_ctrls.rdQLenPdf::14                      8                       # What read queue length does an incoming req see
system.mem_ctrls.rdQLenPdf::15                      7                       # What read queue length does an incoming req see
system.mem_ctrls.rdQLenPdf::16                      5                       # What read queue length does an incoming req see
system.mem_ctrls.rdQLenPdf::17                      3                       # What read queue length does an incoming req see
system.mem_ctrls.rdQLenPdf::18                      0                       # What read queue length does an incoming req see
system.mem_ctrls.rdQLenPdf::19                      0                       # What read queue length does an incoming req see
system.mem_ctrls.rdQLenPdf::20                      0                       # What read queue length does an incoming req see
system.mem_ctrls.rdQLenPdf::21                      0                       # What read queue length does an incoming req see
system.mem_ctrls.rdQLenPdf::22                      0                       # What read queue length does an incoming req see
system.mem_ctrls.rdQLenPdf::23                      0                       # What read queue length does an incoming req see
system.mem_ctrls.rdQLenPdf::24                      0                       # What read queue length does an incoming req see
system.mem_ctrls.rdQLenPdf::25                      0                       # What read queue length does an incoming req see
system.mem_ctrls.rdQLenPdf::26                      0                       # What read queue length does an incoming req see
system.mem_ctrls.rdQLenPdf::27                      0                       # What read queue length does an incoming req see
system.mem_ctrls.rdQLenPdf::28                      0                       # What read queue length does an incoming req see
system.mem_ctrls.rdQLenPdf::29                      0                       # What read queue length does an incoming req see
system.mem_ctrls.rdQLenPdf::30                      0                       # What read queue length does an incoming req see
system.mem_ctrls.rdQLenPdf::31                      0                       # What read queue length does an incoming req see
system.mem_ctrls.wrQLenPdf::0                       1                       # What write queue length does an incoming req see
system.mem_ctrls.wrQLenPdf::1                       1                       # What write queue length does an incoming req see
system.mem_ctrls.wrQLenPdf::2                       1                       # What write queue length does an incoming req see
system.mem_ctrls.wrQLenPdf::3                       1                       # What write queue length does an incoming req see
system.mem_ctrls.wrQLenPdf::4                       1                       # What write queue length does an incoming req see
system.mem_ctrls.wrQLenPdf::5                       1                       # What write queue length does an incoming req see
system.mem_ctrls.wrQLenPdf::6                       1                       # What write queue length does an incoming req see
system.mem_ctrls.wrQLenPdf::7                       1                       # What write queue length does an incoming req see
system.mem_ctrls.wrQLenPdf::8                       1                       # What write queue length does an incoming req see
system.mem_ctrls.wrQLenPdf::9                       1                       # What write queue length does an incoming req see
system.mem_ctrls.wrQLenPdf::10                      1                       # What write queue length does an incoming req see
system.mem_ctrls.wrQLenPdf::11                      1                       # What write queue length does an incoming req see
system.mem_ctrls.wrQLenPdf::12                      1                       # What write queue length does an incoming req see
system.mem_ctrls.wrQLenPdf::13                      1                       # What write queue length does an incoming req see
system.mem_ctrls.wrQLenPdf::14                      1                       # What write queue length does an incoming req see
system.mem_ctrls.wrQLenPdf::15                    445                       # What write queue length does an incoming req see
system.mem_ctrls.wrQLenPdf::16                    743                       # What write queue length does an incoming req see
system.mem_ctrls.wrQLenPdf::17                    709                       # What write queue length does an incoming req see
system.mem_ctrls.wrQLenPdf::18                    774                       # What write queue length does an incoming req see
system.mem_ctrls.wrQLenPdf::19                    985                       # What write queue length does an incoming req see
system.mem_ctrls.wrQLenPdf::20                    928                       # What write queue length does an incoming req see
system.mem_ctrls.wrQLenPdf::21                   1044                       # What write queue length does an incoming req see
system.mem_ctrls.wrQLenPdf::22                   1113                       # What write queue length does an incoming req see
system.mem_ctrls.wrQLenPdf::23                   1406                       # What write queue length does an incoming req see
system.mem_ctrls.wrQLenPdf::24                   1324                       # What write queue length does an incoming req see
system.mem_ctrls.wrQLenPdf::25                   1793                       # What write queue length does an incoming req see
system.mem_ctrls.wrQLenPdf::26                   1872                       # What write queue length does an incoming req see
system.mem_ctrls.wrQLenPdf::27                   1365                       # What write queue length does an incoming req see
system.mem_ctrls.wrQLenPdf::28                   1157                       # What write queue length does an incoming req see
system.mem_ctrls.wrQLenPdf::29                   1274                       # What write queue length does an incoming req see
system.mem_ctrls.wrQLenPdf::30                   1351                       # What write queue length does an incoming req see
system.mem_ctrls.wrQLenPdf::31                   1016                       # What write queue length does an incoming req see
system.mem_ctrls.wrQLenPdf::32                    964                       # What write queue length does an incoming req see
system.mem_ctrls.wrQLenPdf::33                    113                       # What write queue length does an incoming req see
system.mem_ctrls.wrQLenPdf::34                     78                       # What write queue length does an incoming req see
system.mem_ctrls.wrQLenPdf::35                     57                       # What write queue length does an incoming req see
system.mem_ctrls.wrQLenPdf::36                     50                       # What write queue length does an incoming req see
system.mem_ctrls.wrQLenPdf::37                     57                       # What write queue length does an incoming req see
system.mem_ctrls.wrQLenPdf::38                     54                       # What write queue length does an incoming req see
system.mem_ctrls.wrQLenPdf::39                     60                       # What write queue length does an incoming req see
system.mem_ctrls.wrQLenPdf::40                     50                       # What write queue length does an incoming req see
system.mem_ctrls.wrQLenPdf::41                     52                       # What write queue length does an incoming req see
system.mem_ctrls.wrQLenPdf::42                     68                       # What write queue length does an incoming req see
system.mem_ctrls.wrQLenPdf::43                     68                       # What write queue length does an incoming req see
system.mem_ctrls.wrQLenPdf::44                     63                       # What write queue length does an incoming req see
system.mem_ctrls.wrQLenPdf::45                     74                       # What write queue length does an incoming req see
system.mem_ctrls.wrQLenPdf::46                     65                       # What write queue length does an incoming req see
system.mem_ctrls.wrQLenPdf::47                     52                       # What write queue length does an incoming req see
system.mem_ctrls.wrQLenPdf::48                     42                       # What write queue length does an incoming req see
system.mem_ctrls.wrQLenPdf::49                     49                       # What write queue length does an incoming req see
system.mem_ctrls.wrQLenPdf::50                     29                       # What write queue length does an incoming req see
system.mem_ctrls.wrQLenPdf::51                     48                       # What write queue length does an incoming req see
system.mem_ctrls.wrQLenPdf::52                     59                       # What write queue length does an incoming req see
system.mem_ctrls.wrQLenPdf::53                     47                       # What write queue length does an incoming req see
system.mem_ctrls.wrQLenPdf::54                     47                       # What write queue length does an incoming req see
system.mem_ctrls.wrQLenPdf::55                     45                       # What write queue length does an incoming req see
system.mem_ctrls.wrQLenPdf::56                     44                       # What write queue length does an incoming req see
system.mem_ctrls.wrQLenPdf::57                     35                       # What write queue length does an incoming req see
system.mem_ctrls.wrQLenPdf::58                     27                       # What write queue length does an incoming req see
system.mem_ctrls.wrQLenPdf::59                     22                       # What write queue length does an incoming req see
system.mem_ctrls.wrQLenPdf::60                     34                       # What write queue length does an incoming req see
system.mem_ctrls.wrQLenPdf::61                     29                       # What write queue length does an incoming req see
system.mem_ctrls.wrQLenPdf::62                     13                       # What write queue length does an incoming req see
system.mem_ctrls.wrQLenPdf::63                     26                       # What write queue length does an incoming req see
system.mem_ctrls.bytesPerActivate::samples        11527                       # Bytes accessed per row activation
system.mem_ctrls.bytesPerActivate::mean    212.071137                       # Bytes accessed per row activation
system.mem_ctrls.bytesPerActivate::gmean   134.709509                       # Bytes accessed per row activation
system.mem_ctrls.bytesPerActivate::stdev   255.567425                       # Bytes accessed per row activation
system.mem_ctrls.bytesPerActivate::0-127         5462     47.38%     47.38% # Bytes accessed per row activation
system.mem_ctrls.bytesPerActivate::128-255         2818     24.45%     71.83% # Bytes accessed per row activation
system.mem_ctrls.bytesPerActivate::256-383         1890     16.40%     88.23% # Bytes accessed per row activation
system.mem_ctrls.bytesPerActivate::384-511          263      2.28%     90.51% # Bytes accessed per row activation
system.mem_ctrls.bytesPerActivate::512-639          115      1.00%     91.51% # Bytes accessed per row activation
system.mem_ctrls.bytesPerActivate::640-767           89      0.77%     92.28% # Bytes accessed per row activation
system.mem_ctrls.bytesPerActivate::768-895           42      0.36%     92.64% # Bytes accessed per row activation
system.mem_ctrls.bytesPerActivate::896-1023           56      0.49%     93.13% # Bytes accessed per row activation
system.mem_ctrls.bytesPerActivate::1024-1151          792      6.87%    100.00% # Bytes accessed per row activation
system.mem_ctrls.bytesPerActivate::total        11527                       # Bytes accessed per row activation
system.mem_ctrls.rdPerTurnAround::samples          802                       # Reads before turning the bus around for writes
system.mem_ctrls.rdPerTurnAround::mean      20.386534                       # Reads before turning the bus around for writes
system.mem_ctrls.rdPerTurnAround::stdev     16.689654                       # Reads before turning the bus around for writes
system.mem_ctrls.rdPerTurnAround::0-7             256     31.92%     31.92% # Reads before turning the bus around for writes
system.mem_ctrls.rdPerTurnAround::8-15             19      2.37%     34.29% # Reads before turning the bus around for writes
system.mem_ctrls.rdPerTurnAround::16-23           126     15.71%     50.00% # Reads before turning the bus around for writes
system.mem_ctrls.rdPerTurnAround::24-31           221     27.56%     77.56% # Reads before turning the bus around for writes
system.mem_ctrls.rdPerTurnAround::32-39           108     13.47%     91.02% # Reads before turning the bus around for writes
system.mem_ctrls.rdPerTurnAround::40-47            43      5.36%     96.38% # Reads before turning the bus around for writes
system.mem_ctrls.rdPerTurnAround::48-55            18      2.24%     98.63% # Reads before turning the bus around for writes
system.mem_ctrls.rdPerTurnAround::56-63             5      0.62%     99.25% # Reads before turning the bus around for writes
system.mem_ctrls.rdPerTurnAround::64-71             2      0.25%     99.50% # Reads before turning the bus around for writes
system.mem_ctrls.rdPerTurnAround::80-87             2      0.25%     99.75% # Reads before turning the bus around for writes
system.mem_ctrls.rdPerTurnAround::112-119            1      0.12%     99.88% # Reads before turning the bus around for writes
system.mem_ctrls.rdPerTurnAround::136-143            1      0.12%    100.00% # Reads before turning the bus around for writes
system.mem_ctrls.rdPerTurnAround::total           802                       # Reads before turning the bus around for writes
system.mem_ctrls.wrPerTurnAround::samples          802                       # Writes before turning the bus around for reads
system.mem_ctrls.wrPerTurnAround::mean      27.200748                       # Writes before turning the bus around for reads
system.mem_ctrls.wrPerTurnAround::gmean     22.996393                       # Writes before turning the bus around for reads
system.mem_ctrls.wrPerTurnAround::stdev     21.598038                       # Writes before turning the bus around for reads
system.mem_ctrls.wrPerTurnAround::16-19           477     59.48%     59.48% # Writes before turning the bus around for reads
system.mem_ctrls.wrPerTurnAround::20-23            93     11.60%     71.07% # Writes before turning the bus around for reads
system.mem_ctrls.wrPerTurnAround::24-27            15      1.87%     72.94% # Writes before turning the bus around for reads
system.mem_ctrls.wrPerTurnAround::28-31            14      1.75%     74.69% # Writes before turning the bus around for reads
system.mem_ctrls.wrPerTurnAround::32-35            78      9.73%     84.41% # Writes before turning the bus around for reads
system.mem_ctrls.wrPerTurnAround::36-39             9      1.12%     85.54% # Writes before turning the bus around for reads
system.mem_ctrls.wrPerTurnAround::40-43            11      1.37%     86.91% # Writes before turning the bus around for reads
system.mem_ctrls.wrPerTurnAround::44-47             4      0.50%     87.41% # Writes before turning the bus around for reads
system.mem_ctrls.wrPerTurnAround::48-51            10      1.25%     88.65% # Writes before turning the bus around for reads
system.mem_ctrls.wrPerTurnAround::52-55             2      0.25%     88.90% # Writes before turning the bus around for reads
system.mem_ctrls.wrPerTurnAround::56-59             2      0.25%     89.15% # Writes before turning the bus around for reads
system.mem_ctrls.wrPerTurnAround::60-63             4      0.50%     89.65% # Writes before turning the bus around for reads
system.mem_ctrls.wrPerTurnAround::64-67            57      7.11%     96.76% # Writes before turning the bus around for reads
system.mem_ctrls.wrPerTurnAround::68-71             3      0.37%     97.13% # Writes before turning the bus around for reads
system.mem_ctrls.wrPerTurnAround::72-75             2      0.25%     97.38% # Writes before turning the bus around for reads
system.mem_ctrls.wrPerTurnAround::76-79             1      0.12%     97.51% # Writes before turning the bus around for reads
system.mem_ctrls.wrPerTurnAround::84-87             2      0.25%     97.76% # Writes before turning the bus around for reads
system.mem_ctrls.wrPerTurnAround::92-95             1      0.12%     97.88% # Writes before turning the bus around for reads
system.mem_ctrls.wrPerTurnAround::96-99             1      0.12%     98.00% # Writes before turning the bus around for reads
system.mem_ctrls.wrPerTurnAround::104-107            2      0.25%     98.25% # Writes before turning the bus around for reads
system.mem_ctrls.wrPerTurnAround::108-111            1      0.12%     98.38% # Writes before turning the bus around for reads
system.mem_ctrls.wrPerTurnAround::112-115            3      0.37%     98.75% # Writes before turning the bus around for reads
system.mem_ctrls.wrPerTurnAround::128-131            4      0.50%     99.25% # Writes before turning the bus around for reads
system.mem_ctrls.wrPerTurnAround::136-139            1      0.12%     99.38% # Writes before turning the bus around for reads
system.mem_ctrls.wrPerTurnAround::140-143            1      0.12%     99.50% # Writes before turning the bus around for reads
system.mem_ctrls.wrPerTurnAround::144-147            1      0.12%     99.63% # Writes before turning the bus around for reads
system.mem_ctrls.wrPerTurnAround::156-159            1      0.12%     99.75% # Writes before turning the bus around for reads
system.mem_ctrls.wrPerTurnAround::192-195            2      0.25%    100.00% # Writes before turning the bus around for reads
system.mem_ctrls.wrPerTurnAround::total           802                       # Writes before turning the bus around for reads
system.mem_ctrls.totQLat                   1156925374                       # Total ticks spent queuing
system.mem_ctrls.totMemAccLat              1464069124                       # Total ticks spent from burst creation until serviced by the DRAM
system.mem_ctrls.totBusLat                   81905000                       # Total ticks spent in databus transfers
system.mem_ctrls.avgQLat                     70626.05                       # Average queueing delay per DRAM burst
system.mem_ctrls.avgBusLat                    5000.00                       # Average bus latency per DRAM burst
system.mem_ctrls.avgMemAccLat                89376.05                       # Average memory access latency per DRAM burst
system.mem_ctrls.avgRdBW                         0.56                       # Average DRAM read bandwidth in MiByte/s
system.mem_ctrls.avgWrBW                         0.75                       # Average achieved write bandwidth in MiByte/s
system.mem_ctrls.avgRdBWSys                      0.56                       # Average system read bandwidth in MiByte/s
system.mem_ctrls.avgWrBWSys                      0.75                       # Average system write bandwidth in MiByte/s
system.mem_ctrls.peakBW                      12800.00                       # Theoretical peak bandwidth in MiByte/s
system.mem_ctrls.busUtil                         0.01                       # Data bus utilization in percentage
system.mem_ctrls.busUtilRead                     0.00                       # Data bus utilization in percentage for reads
system.mem_ctrls.busUtilWrite                    0.01                       # Data bus utilization in percentage for writes
system.mem_ctrls.avgRdQLen                       1.23                       # Average read queue length when enqueuing
system.mem_ctrls.avgWrQLen                      24.42                       # Average write queue length when enqueuing
system.mem_ctrls.readRowHits                    11600                       # Number of row buffer hits during reads
system.mem_ctrls.writeRowHits                   15069                       # Number of row buffer hits during writes
system.mem_ctrls.readRowHitRate                 70.81                       # Row buffer hit rate for reads
system.mem_ctrls.writeRowHitRate                69.01                       # Row buffer hit rate for writes
system.mem_ctrls.avgGap                   44943294.25                       # Average gap between requests
system.mem_ctrls.pageHitRate                    69.78                       # Row buffer hit rate, read and write combined
system.mem_ctrls_0.actEnergy                 39691260                       # Energy for activate commands per rank (pJ)
system.mem_ctrls_0.preEnergy                 21096405                       # Energy for precharge commands per rank (pJ)
system.mem_ctrls_0.readEnergy                57834000                       # Energy for read commands per rank (pJ)
system.mem_ctrls_0.writeEnergy               53134380                       # Energy for write commands per rank (pJ)
system.mem_ctrls_0.refreshEnergy         712367760.000000                       # Energy for refresh commands per rank (pJ)
system.mem_ctrls_0.actBackEnergy            430057020                       # Energy for active background per rank (pJ)
system.mem_ctrls_0.preBackEnergy             44108160                       # Energy for precharge background per rank (pJ)
system.mem_ctrls_0.actPowerDownEnergy      1361870220                       # Energy for active power-down per rank (pJ)
system.mem_ctrls_0.prePowerDownEnergy      1026936480                       # Energy for precharge power-down per rank (pJ)
system.mem_ctrls_0.selfRefreshEnergy     446155022160                       # Energy for self refresh per rank (pJ)
system.mem_ctrls_0.totalEnergy           449902117845                       # Total energy per rank (pJ)
system.mem_ctrls_0.averagePower            241.236126                       # Core power per rank (mW)
system.mem_ctrls_0.totalIdleTime         1670273828610                       # Total Idle time Per DRAM Rank
system.mem_ctrls_0.memoryStateTime::IDLE     87878998                       # Time in different power states
system.mem_ctrls_0.memoryStateTime::REF     303260000                       # Time in different power states
system.mem_ctrls_0.memoryStateTime::SREF 1858245173250                       # Time in different power states
system.mem_ctrls_0.memoryStateTime::PRE_PDN   2674246824                       # Time in different power states
system.mem_ctrls_0.memoryStateTime::ACT     666956392                       # Time in different power states
system.mem_ctrls_0.memoryStateTime::ACT_PDN   2986608036                       # Time in different power states
system.mem_ctrls_1.actEnergy                 42611520                       # Energy for activate commands per rank (pJ)
system.mem_ctrls_1.preEnergy                 22648560                       # Energy for precharge commands per rank (pJ)
system.mem_ctrls_1.readEnergy                59126340                       # Energy for read commands per rank (pJ)
system.mem_ctrls_1.writeEnergy               60739920                       # Energy for write commands per rank (pJ)
system.mem_ctrls_1.refreshEnergy         765226800.000000                       # Energy for refresh commands per rank (pJ)
system.mem_ctrls_1.actBackEnergy            443493630                       # Energy for active background per rank (pJ)
system.mem_ctrls_1.preBackEnergy             47435520                       # Energy for precharge background per rank (pJ)
system.mem_ctrls_1.actPowerDownEnergy      1461047940                       # Energy for active power-down per rank (pJ)
system.mem_ctrls_1.prePowerDownEnergy      1113500640                       # Energy for precharge power-down per rank (pJ)
system.mem_ctrls_1.selfRefreshEnergy     446053904400                       # Energy for self refresh per rank (pJ)
system.mem_ctrls_1.totalEnergy           450069735270                       # Total energy per rank (pJ)
system.mem_ctrls_1.averagePower            241.326002                       # Core power per rank (mW)
system.mem_ctrls_1.totalIdleTime         1719573986825                       # Total Idle time Per DRAM Rank
system.mem_ctrls_1.memoryStateTime::IDLE     94445500                       # Time in different power states
system.mem_ctrls_1.memoryStateTime::REF     325776000                       # Time in different power states
system.mem_ctrls_1.memoryStateTime::SREF 1857764062250                       # Time in different power states
system.mem_ctrls_1.memoryStateTime::PRE_PDN   2899717321                       # Time in different power states
system.mem_ctrls_1.memoryStateTime::ACT     675959678                       # Time in different power states
system.mem_ctrls_1.memoryStateTime::ACT_PDN   3204162751                       # Time in different power states
system.pwrStateResidencyTicks::UNDEFINED 6665161708500                       # Cumulative time (in ticks) in various power states
system.apicbridge.pwrStateResidencyTicks::UNDEFINED 6665161708500                       # Cumulative time (in ticks) in various power states
system.bridge.pwrStateResidencyTicks::UNDEFINED 6665161708500                       # Cumulative time (in ticks) in various power states
system.cpu_voltage_domain.voltage                   1                       # Voltage in Volts
system.cpu_clk_domain.clock                       500                       # Clock period in ticks
system.cpu0.dtb.walker.pwrStateResidencyTicks::UNDEFINED 6665161708500                       # Cumulative time (in ticks) in various power states
system.cpu0.dtb.rdAccesses                          0                       # TLB accesses on read requests
system.cpu0.dtb.wrAccesses                          0                       # TLB accesses on write requests
system.cpu0.dtb.rdMisses                            0                       # TLB misses on read requests
system.cpu0.dtb.wrMisses                            0                       # TLB misses on write requests
system.cpu0.apic_clk_domain.clock                8000                       # Clock period in ticks
system.cpu0.interrupts.pwrStateResidencyTicks::UNDEFINED 6665161708500                       # Cumulative time (in ticks) in various power states
system.cpu0.itb.walker.pwrStateResidencyTicks::UNDEFINED 6665161708500                       # Cumulative time (in ticks) in various power states
system.cpu0.itb.rdAccesses                          0                       # TLB accesses on read requests
system.cpu0.itb.wrAccesses                          0                       # TLB accesses on write requests
system.cpu0.itb.rdMisses                            0                       # TLB misses on read requests
system.cpu0.itb.wrMisses                            0                       # TLB misses on write requests
system.cpu0.pwrStateResidencyTicks::OFF  6665161706500                       # Cumulative time (in ticks) in various power states
system.cpu0.numCycles                               0                       # number of cpu cycles simulated
system.cpu0.numWorkItemsStarted                     0                       # number of work items this cpu started
system.cpu0.numWorkItemsCompleted                   0                       # number of work items this cpu completed
system.cpu0.kern.inst.arm                           0                       # number of arm instructions executed
system.cpu0.kern.inst.quiesce                       0                       # number of quiesce instructions executed
system.cpu0.committedInsts                          0                       # Number of instructions committed
system.cpu0.committedOps                            0                       # Number of ops (including micro ops) committed
system.cpu0.num_int_alu_accesses                    0                       # Number of integer alu accesses
system.cpu0.num_fp_alu_accesses                     0                       # Number of float alu accesses
system.cpu0.num_vec_alu_accesses                    0                       # Number of vector alu accesses
system.cpu0.num_func_calls                          0                       # number of times a function call or return occured
system.cpu0.num_conditional_control_insts            0                       # number of instructions that are conditional controls
system.cpu0.num_int_insts                           0                       # number of integer instructions
system.cpu0.num_fp_insts                            0                       # number of float instructions
system.cpu0.num_vec_insts                           0                       # number of vector instructions
system.cpu0.num_int_register_reads                  0                       # number of times the integer registers were read
system.cpu0.num_int_register_writes                 0                       # number of times the integer registers were written
system.cpu0.num_fp_register_reads                   0                       # number of times the floating registers were read
system.cpu0.num_fp_register_writes                  0                       # number of times the floating registers were written
system.cpu0.num_vec_register_reads                  0                       # number of times the vector registers were read
system.cpu0.num_vec_register_writes                 0                       # number of times the vector registers were written
system.cpu0.num_mem_refs                            0                       # number of memory refs
system.cpu0.num_load_insts                          0                       # Number of load instructions
system.cpu0.num_store_insts                         0                       # Number of store instructions
system.cpu0.num_idle_cycles                         0                       # Number of idle cycles
system.cpu0.num_busy_cycles                         0                       # Number of busy cycles
system.cpu0.not_idle_fraction                       1                       # Percentage of non-idle cycles
system.cpu0.idle_fraction                           0                       # Percentage of idle cycles
system.cpu0.op_class::No_OpClass                    0                       # Class of executed instruction
system.cpu0.op_class::IntAlu                        0                       # Class of executed instruction
system.cpu0.op_class::IntMult                       0                       # Class of executed instruction
system.cpu0.op_class::IntDiv                        0                       # Class of executed instruction
system.cpu0.op_class::FloatAdd                      0                       # Class of executed instruction
system.cpu0.op_class::FloatCmp                      0                       # Class of executed instruction
system.cpu0.op_class::FloatCvt                      0                       # Class of executed instruction
system.cpu0.op_class::FloatMult                     0                       # Class of executed instruction
system.cpu0.op_class::FloatMultAcc                  0                       # Class of executed instruction
system.cpu0.op_class::FloatDiv                      0                       # Class of executed instruction
system.cpu0.op_class::FloatMisc                     0                       # Class of executed instruction
system.cpu0.op_class::FloatSqrt                     0                       # Class of executed instruction
system.cpu0.op_class::SimdAdd                       0                       # Class of executed instruction
system.cpu0.op_class::SimdAddAcc                    0                       # Class of executed instruction
system.cpu0.op_class::SimdAlu                       0                       # Class of executed instruction
system.cpu0.op_class::SimdCmp                       0                       # Class of executed instruction
system.cpu0.op_class::SimdCvt                       0                       # Class of executed instruction
system.cpu0.op_class::SimdMisc                      0                       # Class of executed instruction
system.cpu0.op_class::SimdMult                      0                       # Class of executed instruction
system.cpu0.op_class::SimdMultAcc                   0                       # Class of executed instruction
system.cpu0.op_class::SimdShift                     0                       # Class of executed instruction
system.cpu0.op_class::SimdShiftAcc                  0                       # Class of executed instruction
system.cpu0.op_class::SimdSqrt                      0                       # Class of executed instruction
system.cpu0.op_class::SimdFloatAdd                  0                       # Class of executed instruction
system.cpu0.op_class::SimdFloatAlu                  0                       # Class of executed instruction
system.cpu0.op_class::SimdFloatCmp                  0                       # Class of executed instruction
system.cpu0.op_class::SimdFloatCvt                  0                       # Class of executed instruction
system.cpu0.op_class::SimdFloatDiv                  0                       # Class of executed instruction
system.cpu0.op_class::SimdFloatMisc                 0                       # Class of executed instruction
system.cpu0.op_class::SimdFloatMult                 0                       # Class of executed instruction
system.cpu0.op_class::SimdFloatMultAcc              0                       # Class of executed instruction
system.cpu0.op_class::SimdFloatSqrt                 0                       # Class of executed instruction
system.cpu0.op_class::MemRead                       0                       # Class of executed instruction
system.cpu0.op_class::MemWrite                      0                       # Class of executed instruction
system.cpu0.op_class::FloatMemRead                  0                       # Class of executed instruction
system.cpu0.op_class::FloatMemWrite                 0                       # Class of executed instruction
system.cpu0.op_class::IprAccess                     0                       # Class of executed instruction
system.cpu0.op_class::InstPrefetch                  0                       # Class of executed instruction
system.cpu0.op_class::total                         0                       # Class of executed instruction
system.cpu0.dcache.tags.pwrStateResidencyTicks::UNDEFINED 6665161708500                       # Cumulative time (in ticks) in various power states
system.cpu0.dcache.tags.replacements            17933                       # number of replacements
system.cpu0.dcache.tags.tagsinuse          943.316670                       # Cycle average of tags in use
system.cpu0.dcache.tags.total_refs            1066077                       # Total number of references to valid blocks.
system.cpu0.dcache.tags.sampled_refs            18925                       # Sample count of references to valid blocks.
system.cpu0.dcache.tags.avg_refs            56.331678                       # Average number of references to valid blocks.
system.cpu0.dcache.tags.warmup_cycle                0                       # Cycle when the warmup percentage was hit.
system.cpu0.dcache.tags.occ_blocks::switch_cpus0.data    20.213357                       # Average occupied blocks per requestor
system.cpu0.dcache.tags.occ_blocks::switch_cpus_10.data   923.103313                       # Average occupied blocks per requestor
system.cpu0.dcache.tags.occ_percent::switch_cpus0.data     0.019740                       # Average percentage of cache occupancy
system.cpu0.dcache.tags.occ_percent::switch_cpus_10.data     0.901468                       # Average percentage of cache occupancy
system.cpu0.dcache.tags.occ_percent::total     0.921208                       # Average percentage of cache occupancy
system.cpu0.dcache.tags.occ_task_id_blocks::1024          992                       # Occupied blocks per task id
system.cpu0.dcache.tags.age_task_id_blocks_1024::3            9                       # Occupied blocks per task id
system.cpu0.dcache.tags.age_task_id_blocks_1024::4          983                       # Occupied blocks per task id
system.cpu0.dcache.tags.occ_task_id_percent::1024     0.968750                       # Percentage of cache occupancy per task id
system.cpu0.dcache.tags.tag_accesses          2231546                       # Number of tag accesses
system.cpu0.dcache.tags.data_accesses         2231546                       # Number of data accesses
system.cpu0.dcache.pwrStateResidencyTicks::UNDEFINED 6665161708500                       # Cumulative time (in ticks) in various power states
system.cpu0.dcache.ReadReq_hits::switch_cpus0.data         5356                       # number of ReadReq hits
system.cpu0.dcache.ReadReq_hits::switch_cpus_10.data       657051                       # number of ReadReq hits
system.cpu0.dcache.ReadReq_hits::total         662407                       # number of ReadReq hits
system.cpu0.dcache.WriteReq_hits::switch_cpus0.data         2913                       # number of WriteReq hits
system.cpu0.dcache.WriteReq_hits::switch_cpus_10.data       410851                       # number of WriteReq hits
system.cpu0.dcache.WriteReq_hits::total        413764                       # number of WriteReq hits
system.cpu0.dcache.SoftPFReq_hits::switch_cpus0.data            6                       # number of SoftPFReq hits
system.cpu0.dcache.SoftPFReq_hits::switch_cpus_10.data           78                       # number of SoftPFReq hits
system.cpu0.dcache.SoftPFReq_hits::total           84                       # number of SoftPFReq hits
system.cpu0.dcache.demand_hits::switch_cpus0.data         8269                       # number of demand (read+write) hits
system.cpu0.dcache.demand_hits::switch_cpus_10.data      1067902                       # number of demand (read+write) hits
system.cpu0.dcache.demand_hits::total         1076171                       # number of demand (read+write) hits
system.cpu0.dcache.overall_hits::switch_cpus0.data         8275                       # number of overall hits
system.cpu0.dcache.overall_hits::switch_cpus_10.data      1067980                       # number of overall hits
system.cpu0.dcache.overall_hits::total        1076255                       # number of overall hits
system.cpu0.dcache.ReadReq_misses::switch_cpus0.data           66                       # number of ReadReq misses
system.cpu0.dcache.ReadReq_misses::switch_cpus_10.data        20076                       # number of ReadReq misses
system.cpu0.dcache.ReadReq_misses::total        20142                       # number of ReadReq misses
system.cpu0.dcache.WriteReq_misses::switch_cpus0.data           58                       # number of WriteReq misses
system.cpu0.dcache.WriteReq_misses::switch_cpus_10.data         7214                       # number of WriteReq misses
system.cpu0.dcache.WriteReq_misses::total         7272                       # number of WriteReq misses
system.cpu0.dcache.SoftPFReq_misses::switch_cpus_10.data          437                       # number of SoftPFReq misses
system.cpu0.dcache.SoftPFReq_misses::total          437                       # number of SoftPFReq misses
system.cpu0.dcache.demand_misses::switch_cpus0.data          124                       # number of demand (read+write) misses
system.cpu0.dcache.demand_misses::switch_cpus_10.data        27290                       # number of demand (read+write) misses
system.cpu0.dcache.demand_misses::total         27414                       # number of demand (read+write) misses
system.cpu0.dcache.overall_misses::switch_cpus0.data          124                       # number of overall misses
system.cpu0.dcache.overall_misses::switch_cpus_10.data        27727                       # number of overall misses
system.cpu0.dcache.overall_misses::total        27851                       # number of overall misses
system.cpu0.dcache.ReadReq_miss_latency::switch_cpus_10.data    187760000                       # number of ReadReq miss cycles
system.cpu0.dcache.ReadReq_miss_latency::total    187760000                       # number of ReadReq miss cycles
system.cpu0.dcache.WriteReq_miss_latency::switch_cpus_10.data     93904500                       # number of WriteReq miss cycles
system.cpu0.dcache.WriteReq_miss_latency::total     93904500                       # number of WriteReq miss cycles
system.cpu0.dcache.demand_miss_latency::switch_cpus_10.data    281664500                       # number of demand (read+write) miss cycles
system.cpu0.dcache.demand_miss_latency::total    281664500                       # number of demand (read+write) miss cycles
system.cpu0.dcache.overall_miss_latency::switch_cpus_10.data    281664500                       # number of overall miss cycles
system.cpu0.dcache.overall_miss_latency::total    281664500                       # number of overall miss cycles
system.cpu0.dcache.ReadReq_accesses::switch_cpus0.data         5422                       # number of ReadReq accesses(hits+misses)
system.cpu0.dcache.ReadReq_accesses::switch_cpus_10.data       677127                       # number of ReadReq accesses(hits+misses)
system.cpu0.dcache.ReadReq_accesses::total       682549                       # number of ReadReq accesses(hits+misses)
system.cpu0.dcache.WriteReq_accesses::switch_cpus0.data         2971                       # number of WriteReq accesses(hits+misses)
system.cpu0.dcache.WriteReq_accesses::switch_cpus_10.data       418065                       # number of WriteReq accesses(hits+misses)
system.cpu0.dcache.WriteReq_accesses::total       421036                       # number of WriteReq accesses(hits+misses)
system.cpu0.dcache.SoftPFReq_accesses::switch_cpus0.data            6                       # number of SoftPFReq accesses(hits+misses)
system.cpu0.dcache.SoftPFReq_accesses::switch_cpus_10.data          515                       # number of SoftPFReq accesses(hits+misses)
system.cpu0.dcache.SoftPFReq_accesses::total          521                       # number of SoftPFReq accesses(hits+misses)
system.cpu0.dcache.demand_accesses::switch_cpus0.data         8393                       # number of demand (read+write) accesses
system.cpu0.dcache.demand_accesses::switch_cpus_10.data      1095192                       # number of demand (read+write) accesses
system.cpu0.dcache.demand_accesses::total      1103585                       # number of demand (read+write) accesses
system.cpu0.dcache.overall_accesses::switch_cpus0.data         8399                       # number of overall (read+write) accesses
system.cpu0.dcache.overall_accesses::switch_cpus_10.data      1095707                       # number of overall (read+write) accesses
system.cpu0.dcache.overall_accesses::total      1104106                       # number of overall (read+write) accesses
system.cpu0.dcache.ReadReq_miss_rate::switch_cpus0.data     0.012173                       # miss rate for ReadReq accesses
system.cpu0.dcache.ReadReq_miss_rate::switch_cpus_10.data     0.029649                       # miss rate for ReadReq accesses
system.cpu0.dcache.ReadReq_miss_rate::total     0.029510                       # miss rate for ReadReq accesses
system.cpu0.dcache.WriteReq_miss_rate::switch_cpus0.data     0.019522                       # miss rate for WriteReq accesses
system.cpu0.dcache.WriteReq_miss_rate::switch_cpus_10.data     0.017256                       # miss rate for WriteReq accesses
system.cpu0.dcache.WriteReq_miss_rate::total     0.017272                       # miss rate for WriteReq accesses
system.cpu0.dcache.SoftPFReq_miss_rate::switch_cpus_10.data     0.848544                       # miss rate for SoftPFReq accesses
system.cpu0.dcache.SoftPFReq_miss_rate::total     0.838772                       # miss rate for SoftPFReq accesses
system.cpu0.dcache.demand_miss_rate::switch_cpus0.data     0.014774                       # miss rate for demand accesses
system.cpu0.dcache.demand_miss_rate::switch_cpus_10.data     0.024918                       # miss rate for demand accesses
system.cpu0.dcache.demand_miss_rate::total     0.024841                       # miss rate for demand accesses
system.cpu0.dcache.overall_miss_rate::switch_cpus0.data     0.014764                       # miss rate for overall accesses
system.cpu0.dcache.overall_miss_rate::switch_cpus_10.data     0.025305                       # miss rate for overall accesses
system.cpu0.dcache.overall_miss_rate::total     0.025225                       # miss rate for overall accesses
system.cpu0.dcache.ReadReq_avg_miss_latency::switch_cpus_10.data  9352.460650                       # average ReadReq miss latency
system.cpu0.dcache.ReadReq_avg_miss_latency::total  9321.815113                       # average ReadReq miss latency
system.cpu0.dcache.WriteReq_avg_miss_latency::switch_cpus_10.data 13016.980871                       # average WriteReq miss latency
system.cpu0.dcache.WriteReq_avg_miss_latency::total 12913.160066                       # average WriteReq miss latency
system.cpu0.dcache.demand_avg_miss_latency::switch_cpus_10.data 10321.161598                       # average overall miss latency
system.cpu0.dcache.demand_avg_miss_latency::total 10274.476545                       # average overall miss latency
system.cpu0.dcache.overall_avg_miss_latency::switch_cpus_10.data 10158.491723                       # average overall miss latency
system.cpu0.dcache.overall_avg_miss_latency::total 10113.263438                       # average overall miss latency
system.cpu0.dcache.blocked_cycles::no_mshrs            0                       # number of cycles access was blocked
system.cpu0.dcache.blocked_cycles::no_targets            0                       # number of cycles access was blocked
system.cpu0.dcache.blocked::no_mshrs                0                       # number of cycles access was blocked
system.cpu0.dcache.blocked::no_targets              0                       # number of cycles access was blocked
system.cpu0.dcache.avg_blocked_cycles::no_mshrs          nan                       # average number of cycles each access was blocked
system.cpu0.dcache.avg_blocked_cycles::no_targets          nan                       # average number of cycles each access was blocked
system.cpu0.dcache.writebacks::writebacks         7339                       # number of writebacks
system.cpu0.dcache.writebacks::total             7339                       # number of writebacks
system.cpu0.dcache.WriteReq_mshr_hits::switch_cpus_10.data            4                       # number of WriteReq MSHR hits
system.cpu0.dcache.WriteReq_mshr_hits::total            4                       # number of WriteReq MSHR hits
system.cpu0.dcache.demand_mshr_hits::switch_cpus_10.data            4                       # number of demand (read+write) MSHR hits
system.cpu0.dcache.demand_mshr_hits::total            4                       # number of demand (read+write) MSHR hits
system.cpu0.dcache.overall_mshr_hits::switch_cpus_10.data            4                       # number of overall MSHR hits
system.cpu0.dcache.overall_mshr_hits::total            4                       # number of overall MSHR hits
system.cpu0.dcache.ReadReq_mshr_misses::switch_cpus_10.data        20076                       # number of ReadReq MSHR misses
system.cpu0.dcache.ReadReq_mshr_misses::total        20076                       # number of ReadReq MSHR misses
system.cpu0.dcache.WriteReq_mshr_misses::switch_cpus_10.data         7210                       # number of WriteReq MSHR misses
system.cpu0.dcache.WriteReq_mshr_misses::total         7210                       # number of WriteReq MSHR misses
system.cpu0.dcache.SoftPFReq_mshr_misses::switch_cpus_10.data          437                       # number of SoftPFReq MSHR misses
system.cpu0.dcache.SoftPFReq_mshr_misses::total          437                       # number of SoftPFReq MSHR misses
system.cpu0.dcache.demand_mshr_misses::switch_cpus_10.data        27286                       # number of demand (read+write) MSHR misses
system.cpu0.dcache.demand_mshr_misses::total        27286                       # number of demand (read+write) MSHR misses
system.cpu0.dcache.overall_mshr_misses::switch_cpus_10.data        27723                       # number of overall MSHR misses
system.cpu0.dcache.overall_mshr_misses::total        27723                       # number of overall MSHR misses
system.cpu0.dcache.ReadReq_mshr_uncacheable::switch_cpus_10.data           22                       # number of ReadReq MSHR uncacheable
system.cpu0.dcache.ReadReq_mshr_uncacheable::total           22                       # number of ReadReq MSHR uncacheable
system.cpu0.dcache.WriteReq_mshr_uncacheable::switch_cpus_10.data          516                       # number of WriteReq MSHR uncacheable
system.cpu0.dcache.WriteReq_mshr_uncacheable::total          516                       # number of WriteReq MSHR uncacheable
system.cpu0.dcache.overall_mshr_uncacheable_misses::switch_cpus_10.data          538                       # number of overall MSHR uncacheable misses
system.cpu0.dcache.overall_mshr_uncacheable_misses::total          538                       # number of overall MSHR uncacheable misses
system.cpu0.dcache.ReadReq_mshr_miss_latency::switch_cpus_10.data    167684000                       # number of ReadReq MSHR miss cycles
system.cpu0.dcache.ReadReq_mshr_miss_latency::total    167684000                       # number of ReadReq MSHR miss cycles
system.cpu0.dcache.WriteReq_mshr_miss_latency::switch_cpus_10.data     86387000                       # number of WriteReq MSHR miss cycles
system.cpu0.dcache.WriteReq_mshr_miss_latency::total     86387000                       # number of WriteReq MSHR miss cycles
system.cpu0.dcache.SoftPFReq_mshr_miss_latency::switch_cpus_10.data      3228500                       # number of SoftPFReq MSHR miss cycles
system.cpu0.dcache.SoftPFReq_mshr_miss_latency::total      3228500                       # number of SoftPFReq MSHR miss cycles
system.cpu0.dcache.demand_mshr_miss_latency::switch_cpus_10.data    254071000                       # number of demand (read+write) MSHR miss cycles
system.cpu0.dcache.demand_mshr_miss_latency::total    254071000                       # number of demand (read+write) MSHR miss cycles
system.cpu0.dcache.overall_mshr_miss_latency::switch_cpus_10.data    257299500                       # number of overall MSHR miss cycles
system.cpu0.dcache.overall_mshr_miss_latency::total    257299500                       # number of overall MSHR miss cycles
system.cpu0.dcache.ReadReq_mshr_uncacheable_latency::switch_cpus_10.data      3653000                       # number of ReadReq MSHR uncacheable cycles
system.cpu0.dcache.ReadReq_mshr_uncacheable_latency::total      3653000                       # number of ReadReq MSHR uncacheable cycles
system.cpu0.dcache.overall_mshr_uncacheable_latency::switch_cpus_10.data      3653000                       # number of overall MSHR uncacheable cycles
system.cpu0.dcache.overall_mshr_uncacheable_latency::total      3653000                       # number of overall MSHR uncacheable cycles
system.cpu0.dcache.ReadReq_mshr_miss_rate::switch_cpus_10.data     0.029649                       # mshr miss rate for ReadReq accesses
system.cpu0.dcache.ReadReq_mshr_miss_rate::total     0.029413                       # mshr miss rate for ReadReq accesses
system.cpu0.dcache.WriteReq_mshr_miss_rate::switch_cpus_10.data     0.017246                       # mshr miss rate for WriteReq accesses
system.cpu0.dcache.WriteReq_mshr_miss_rate::total     0.017124                       # mshr miss rate for WriteReq accesses
system.cpu0.dcache.SoftPFReq_mshr_miss_rate::switch_cpus_10.data     0.848544                       # mshr miss rate for SoftPFReq accesses
system.cpu0.dcache.SoftPFReq_mshr_miss_rate::total     0.838772                       # mshr miss rate for SoftPFReq accesses
system.cpu0.dcache.demand_mshr_miss_rate::switch_cpus_10.data     0.024914                       # mshr miss rate for demand accesses
system.cpu0.dcache.demand_mshr_miss_rate::total     0.024725                       # mshr miss rate for demand accesses
system.cpu0.dcache.overall_mshr_miss_rate::switch_cpus_10.data     0.025301                       # mshr miss rate for overall accesses
system.cpu0.dcache.overall_mshr_miss_rate::total     0.025109                       # mshr miss rate for overall accesses
system.cpu0.dcache.ReadReq_avg_mshr_miss_latency::switch_cpus_10.data  8352.460650                       # average ReadReq mshr miss latency
system.cpu0.dcache.ReadReq_avg_mshr_miss_latency::total  8352.460650                       # average ReadReq mshr miss latency
system.cpu0.dcache.WriteReq_avg_mshr_miss_latency::switch_cpus_10.data 11981.553398                       # average WriteReq mshr miss latency
system.cpu0.dcache.WriteReq_avg_mshr_miss_latency::total 11981.553398                       # average WriteReq mshr miss latency
system.cpu0.dcache.SoftPFReq_avg_mshr_miss_latency::switch_cpus_10.data  7387.871854                       # average SoftPFReq mshr miss latency
system.cpu0.dcache.SoftPFReq_avg_mshr_miss_latency::total  7387.871854                       # average SoftPFReq mshr miss latency
system.cpu0.dcache.demand_avg_mshr_miss_latency::switch_cpus_10.data  9311.405116                       # average overall mshr miss latency
system.cpu0.dcache.demand_avg_mshr_miss_latency::total  9311.405116                       # average overall mshr miss latency
system.cpu0.dcache.overall_avg_mshr_miss_latency::switch_cpus_10.data  9281.084298                       # average overall mshr miss latency
system.cpu0.dcache.overall_avg_mshr_miss_latency::total  9281.084298                       # average overall mshr miss latency
system.cpu0.dcache.ReadReq_avg_mshr_uncacheable_latency::switch_cpus_10.data 166045.454545                       # average ReadReq mshr uncacheable latency
system.cpu0.dcache.ReadReq_avg_mshr_uncacheable_latency::total 166045.454545                       # average ReadReq mshr uncacheable latency
system.cpu0.dcache.overall_avg_mshr_uncacheable_latency::switch_cpus_10.data  6789.962825                       # average overall mshr uncacheable latency
system.cpu0.dcache.overall_avg_mshr_uncacheable_latency::total  6789.962825                       # average overall mshr uncacheable latency
system.cpu0.dtb_walker_cache.tags.pwrStateResidencyTicks::UNDEFINED 6665161708500                       # Cumulative time (in ticks) in various power states
system.cpu0.dtb_walker_cache.tags.replacements          275                       # number of replacements
system.cpu0.dtb_walker_cache.tags.tagsinuse    15.998163                       # Cycle average of tags in use
system.cpu0.dtb_walker_cache.tags.total_refs          297                       # Total number of references to valid blocks.
system.cpu0.dtb_walker_cache.tags.sampled_refs          291                       # Sample count of references to valid blocks.
[...]
system.tol2bus.pkt_count_system.cpu4.icache.mem_side::system.l2.cpu_side        38829                       # Packet count per connected master and slave (bytes)
system.tol2bus.pkt_count_system.cpu4.dcache.mem_side::system.l2.cpu_side        47301                       # Packet count per connected master and slave (bytes)
system.tol2bus.pkt_count_system.cpu4.itb_walker_cache.mem_side::system.l2.cpu_side           16                       # Packet count per connected master and slave (bytes)
system.tol2bus.pkt_count_system.cpu4.dtb_walker_cache.mem_side::system.l2.cpu_side          220                       # Packet count per connected master and slave (bytes)
system.tol2bus.pkt_count_system.cpu5.icache.mem_side::system.l2.cpu_side        36468                       # Packet count per connected master and slave (bytes)
system.tol2bus.pkt_count_system.cpu5.dcache.mem_side::system.l2.cpu_side        43015                       # Packet count per connected master and slave (bytes)
system.tol2bus.pkt_count_system.cpu5.itb_walker_cache.mem_side::system.l2.cpu_side           11                       # Packet count per connected master and slave (bytes)
system.tol2bus.pkt_count_system.cpu5.dtb_walker_cache.mem_side::system.l2.cpu_side          232                       # Packet count per connected master and slave (bytes)
system.tol2bus.pkt_count_system.cpu6.icache.mem_side::system.l2.cpu_side        38295                       # Packet count per connected master and slave (bytes)
system.tol2bus.pkt_count_system.cpu6.dcache.mem_side::system.l2.cpu_side        48000                       # Packet count per connected master and slave (bytes)
system.tol2bus.pkt_count_system.cpu6.itb_walker_cache.mem_side::system.l2.cpu_side           47                       # Packet count per connected master and slave (bytes)
system.tol2bus.pkt_count_system.cpu6.dtb_walker_cache.mem_side::system.l2.cpu_side          263                       # Packet count per connected master and slave (bytes)
system.tol2bus.pkt_count_system.cpu7.icache.mem_side::system.l2.cpu_side        37161                       # Packet count per connected master and slave (bytes)
system.tol2bus.pkt_count_system.cpu7.dcache.mem_side::system.l2.cpu_side        47951                       # Packet count per connected master and slave (bytes)
system.tol2bus.pkt_count_system.cpu7.itb_walker_cache.mem_side::system.l2.cpu_side           99                       # Packet count per connected master and slave (bytes)
system.tol2bus.pkt_count_system.cpu7.dtb_walker_cache.mem_side::system.l2.cpu_side          235                       # Packet count per connected master and slave (bytes)
system.tol2bus.pkt_count::total                676893                       # Packet count per connected master and slave (bytes)
system.tol2bus.pkt_size_system.cpu0.icache.mem_side::system.l2.cpu_side      2426112                       # Cumulative packet size per connected master and slave (bytes)
system.tol2bus.pkt_size_system.cpu0.dcache.mem_side::system.l2.cpu_side      1200884                       # Cumulative packet size per connected master and slave (bytes)
system.tol2bus.pkt_size_system.cpu0.itb_walker_cache.mem_side::system.l2.cpu_side        10560                       # Cumulative packet size per connected master and slave (bytes)
system.tol2bus.pkt_size_system.cpu0.dtb_walker_cache.mem_side::system.l2.cpu_side        15168                       # Cumulative packet size per connected master and slave (bytes)
system.tol2bus.pkt_size_system.cpu1.icache.mem_side::system.l2.cpu_side      1687296                       # Cumulative packet size per connected master and slave (bytes)
system.tol2bus.pkt_size_system.cpu1.dcache.mem_side::system.l2.cpu_side       830432                       # Cumulative packet size per connected master and slave (bytes)
system.tol2bus.pkt_size_system.cpu1.itb_walker_cache.mem_side::system.l2.cpu_side         1344                       # Cumulative packet size per connected master and slave (bytes)
system.tol2bus.pkt_size_system.cpu1.dtb_walker_cache.mem_side::system.l2.cpu_side         8448                       # Cumulative packet size per connected master and slave (bytes)
system.tol2bus.pkt_size_system.cpu2.icache.mem_side::system.l2.cpu_side      1505408                       # Cumulative packet size per connected master and slave (bytes)
system.tol2bus.pkt_size_system.cpu2.dcache.mem_side::system.l2.cpu_side       350584                       # Cumulative packet size per connected master and slave (bytes)
system.tol2bus.pkt_size_system.cpu2.itb_walker_cache.mem_side::system.l2.cpu_side          192                       # Cumulative packet size per connected master and slave (bytes)
system.tol2bus.pkt_size_system.cpu2.dtb_walker_cache.mem_side::system.l2.cpu_side         3968                       # Cumulative packet size per connected master and slave (bytes)
system.tol2bus.pkt_size_system.cpu3.icache.mem_side::system.l2.cpu_side      1397888                       # Cumulative packet size per connected master and slave (bytes)
system.tol2bus.pkt_size_system.cpu3.dcache.mem_side::system.l2.cpu_side       844246                       # Cumulative packet size per connected master and slave (bytes)
system.tol2bus.pkt_size_system.cpu3.itb_walker_cache.mem_side::system.l2.cpu_side          128                       # Cumulative packet size per connected master and slave (bytes)
system.tol2bus.pkt_size_system.cpu3.dtb_walker_cache.mem_side::system.l2.cpu_side         3904                       # Cumulative packet size per connected master and slave (bytes)
system.tol2bus.pkt_size_system.cpu4.icache.mem_side::system.l2.cpu_side      1656704                       # Cumulative packet size per connected master and slave (bytes)
system.tol2bus.pkt_size_system.cpu4.dcache.mem_side::system.l2.cpu_side       814756                       # Cumulative packet size per connected master and slave (bytes)
system.tol2bus.pkt_size_system.cpu4.itb_walker_cache.mem_side::system.l2.cpu_side          128                       # Cumulative packet size per connected master and slave (bytes)
system.tol2bus.pkt_size_system.cpu4.dtb_walker_cache.mem_side::system.l2.cpu_side         4288                       # Cumulative packet size per connected master and slave (bytes)
system.tol2bus.pkt_size_system.cpu5.icache.mem_side::system.l2.cpu_side      1555968                       # Cumulative packet size per connected master and slave (bytes)
system.tol2bus.pkt_size_system.cpu5.dcache.mem_side::system.l2.cpu_side       703948                       # Cumulative packet size per connected master and slave (bytes)
system.tol2bus.pkt_size_system.cpu5.itb_walker_cache.mem_side::system.l2.cpu_side          192                       # Cumulative packet size per connected master and slave (bytes)
system.tol2bus.pkt_size_system.cpu5.dtb_walker_cache.mem_side::system.l2.cpu_side         4224                       # Cumulative packet size per connected master and slave (bytes)
system.tol2bus.pkt_size_system.cpu6.icache.mem_side::system.l2.cpu_side      1633920                       # Cumulative packet size per connected master and slave (bytes)
system.tol2bus.pkt_size_system.cpu6.dcache.mem_side::system.l2.cpu_side       886692                       # Cumulative packet size per connected master and slave (bytes)
system.tol2bus.pkt_size_system.cpu6.itb_walker_cache.mem_side::system.l2.cpu_side          320                       # Cumulative packet size per connected master and slave (bytes)
system.tol2bus.pkt_size_system.cpu6.dtb_walker_cache.mem_side::system.l2.cpu_side         4544                       # Cumulative packet size per connected master and slave (bytes)
system.tol2bus.pkt_size_system.cpu7.icache.mem_side::system.l2.cpu_side      1585536                       # Cumulative packet size per connected master and slave (bytes)
system.tol2bus.pkt_size_system.cpu7.dcache.mem_side::system.l2.cpu_side       874488                       # Cumulative packet size per connected master and slave (bytes)
system.tol2bus.pkt_size_system.cpu7.itb_walker_cache.mem_side::system.l2.cpu_side          192                       # Cumulative packet size per connected master and slave (bytes)
system.tol2bus.pkt_size_system.cpu7.dtb_walker_cache.mem_side::system.l2.cpu_side         4736                       # Cumulative packet size per connected master and slave (bytes)
system.tol2bus.pkt_size::total               20017198                       # Cumulative packet size per connected master and slave (bytes)
system.tol2bus.snoops                          188636                       # Total snoops (count)
system.tol2bus.snoopTraffic                   6490752                       # Total snoop traffic (bytes)
system.tol2bus.snoop_fanout::samples           373405                       # Request fanout histogram
system.tol2bus.snoop_fanout::mean            2.527623                       # Request fanout histogram
system.tol2bus.snoop_fanout::stdev           2.687097                       # Request fanout histogram
system.tol2bus.snoop_fanout::underflows             0      0.00%      0.00% # Request fanout histogram
system.tol2bus.snoop_fanout::0                  97119     26.01%     26.01% # Request fanout histogram
system.tol2bus.snoop_fanout::1                 103702     27.77%     53.78% # Request fanout histogram
system.tol2bus.snoop_fanout::2                  52860     14.16%     67.94% # Request fanout histogram
system.tol2bus.snoop_fanout::3                  16276      4.36%     72.30% # Request fanout histogram
system.tol2bus.snoop_fanout::4                   4027      1.08%     73.37% # Request fanout histogram
system.tol2bus.snoop_fanout::5                   2858      0.77%     74.14% # Request fanout histogram
system.tol2bus.snoop_fanout::6                  25376      6.80%     80.94% # Request fanout histogram
system.tol2bus.snoop_fanout::7                  68365     18.31%     99.24% # Request fanout histogram
system.tol2bus.snoop_fanout::8                   2471      0.66%     99.91% # Request fanout histogram
system.tol2bus.snoop_fanout::9                     41      0.01%     99.92% # Request fanout histogram
system.tol2bus.snoop_fanout::10                    31      0.01%     99.93% # Request fanout histogram
system.tol2bus.snoop_fanout::11                    30      0.01%     99.93% # Request fanout histogram
system.tol2bus.snoop_fanout::12                    41      0.01%     99.94% # Request fanout histogram
system.tol2bus.snoop_fanout::13                    52      0.01%     99.96% # Request fanout histogram
system.tol2bus.snoop_fanout::14                    50      0.01%     99.97% # Request fanout histogram
system.tol2bus.snoop_fanout::15                    48      0.01%     99.98% # Request fanout histogram
system.tol2bus.snoop_fanout::16                    13      0.00%     99.99% # Request fanout histogram
system.tol2bus.snoop_fanout::17                    15      0.00%     99.99% # Request fanout histogram
system.tol2bus.snoop_fanout::18                    30      0.01%    100.00% # Request fanout histogram
system.tol2bus.snoop_fanout::19                     0      0.00%    100.00% # Request fanout histogram
system.tol2bus.snoop_fanout::20                     0      0.00%    100.00% # Request fanout histogram
system.tol2bus.snoop_fanout::21                     0      0.00%    100.00% # Request fanout histogram
system.tol2bus.snoop_fanout::22                     0      0.00%    100.00% # Request fanout histogram
system.tol2bus.snoop_fanout::23                     0      0.00%    100.00% # Request fanout histogram
system.tol2bus.snoop_fanout::24                     0      0.00%    100.00% # Request fanout histogram
system.tol2bus.snoop_fanout::25                     0      0.00%    100.00% # Request fanout histogram
system.tol2bus.snoop_fanout::26                     0      0.00%    100.00% # Request fanout histogram
system.tol2bus.snoop_fanout::27                     0      0.00%    100.00% # Request fanout histogram
system.tol2bus.snoop_fanout::28                     0      0.00%    100.00% # Request fanout histogram
system.tol2bus.snoop_fanout::29                     0      0.00%    100.00% # Request fanout histogram
system.tol2bus.snoop_fanout::30                     0      0.00%    100.00% # Request fanout histogram
system.tol2bus.snoop_fanout::31                     0      0.00%    100.00% # Request fanout histogram
system.tol2bus.snoop_fanout::32                     0      0.00%    100.00% # Request fanout histogram
system.tol2bus.snoop_fanout::overflows              0      0.00%    100.00% # Request fanout histogram
system.tol2bus.snoop_fanout::min_value              0                       # Request fanout histogram
system.tol2bus.snoop_fanout::max_value             18                       # Request fanout histogram
system.tol2bus.snoop_fanout::total             373405                       # Request fanout histogram
system.tol2bus.reqLayer0.occupancy          389758496                       # Layer occupancy (ticks)
system.tol2bus.reqLayer0.utilization              0.0                       # Layer utilization (%)
system.tol2bus.snoopLayer0.occupancy           124482                       # Layer occupancy (ticks)
system.tol2bus.snoopLayer0.utilization            0.0                       # Layer utilization (%)
system.tol2bus.respLayer0.occupancy          28206499                       # Layer occupancy (ticks)
system.tol2bus.respLayer0.utilization             0.0                       # Layer utilization (%)
system.tol2bus.respLayer1.occupancy          37376996                       # Layer occupancy (ticks)
system.tol2bus.respLayer1.utilization             0.0                       # Layer utilization (%)
system.tol2bus.respLayer2.occupancy            291000                       # Layer occupancy (ticks)
system.tol2bus.respLayer2.utilization             0.0                       # Layer utilization (%)
system.tol2bus.respLayer3.occupancy            445500                       # Layer occupancy (ticks)
system.tol2bus.respLayer3.utilization             0.0                       # Layer utilization (%)
system.tol2bus.respLayer4.occupancy          19773998                       # Layer occupancy (ticks)
system.tol2bus.respLayer4.utilization             0.0                       # Layer utilization (%)
system.tol2bus.respLayer5.occupancy          31795999                       # Layer occupancy (ticks)
system.tol2bus.respLayer5.utilization             0.0                       # Layer utilization (%)
system.tol2bus.respLayer6.occupancy            271500                       # Layer occupancy (ticks)
system.tol2bus.respLayer6.utilization             0.0                       # Layer utilization (%)
system.tol2bus.respLayer7.occupancy            307500                       # Layer occupancy (ticks)
system.tol2bus.respLayer7.utilization             0.0                       # Layer utilization (%)
system.tol2bus.respLayer8.occupancy          17641500                       # Layer occupancy (ticks)
system.tol2bus.respLayer8.utilization             0.0                       # Layer utilization (%)
system.tol2bus.respLayer9.occupancy          10408502                       # Layer occupancy (ticks)
system.tol2bus.respLayer9.utilization             0.0                       # Layer utilization (%)
system.tol2bus.respLayer10.occupancy            19500                       # Layer occupancy (ticks)
system.tol2bus.respLayer10.utilization            0.0                       # Layer utilization (%)
system.tol2bus.respLayer11.occupancy           112500                       # Layer occupancy (ticks)
system.tol2bus.respLayer11.utilization            0.0                       # Layer utilization (%)
system.tol2bus.respLayer12.occupancy         16381500                       # Layer occupancy (ticks)
system.tol2bus.respLayer12.utilization            0.0                       # Layer utilization (%)
system.tol2bus.respLayer13.occupancy         33186499                       # Layer occupancy (ticks)
system.tol2bus.respLayer13.utilization            0.0                       # Layer utilization (%)
system.tol2bus.respLayer14.occupancy             3000                       # Layer occupancy (ticks)
system.tol2bus.respLayer14.utilization            0.0                       # Layer utilization (%)
system.tol2bus.respLayer15.occupancy            87000                       # Layer occupancy (ticks)
system.tol2bus.respLayer15.utilization            0.0                       # Layer utilization (%)
system.tol2bus.respLayer16.occupancy         19415997                       # Layer occupancy (ticks)
system.tol2bus.respLayer16.utilization            0.0                       # Layer utilization (%)
system.tol2bus.respLayer17.occupancy         33789500                       # Layer occupancy (ticks)
system.tol2bus.respLayer17.utilization            0.0                       # Layer utilization (%)
system.tol2bus.respLayer18.occupancy            15000                       # Layer occupancy (ticks)
system.tol2bus.respLayer18.utilization            0.0                       # Layer utilization (%)
system.tol2bus.respLayer19.occupancy           130500                       # Layer occupancy (ticks)
system.tol2bus.respLayer19.utilization            0.0                       # Layer utilization (%)
system.tol2bus.respLayer20.occupancy         18234000                       # Layer occupancy (ticks)
system.tol2bus.respLayer20.utilization            0.0                       # Layer utilization (%)
system.tol2bus.respLayer21.occupancy         30491997                       # Layer occupancy (ticks)
system.tol2bus.respLayer21.utilization            0.0                       # Layer utilization (%)
system.tol2bus.respLayer22.occupancy            10500                       # Layer occupancy (ticks)
system.tol2bus.respLayer22.utilization            0.0                       # Layer utilization (%)
system.tol2bus.respLayer23.occupancy           139500                       # Layer occupancy (ticks)
system.tol2bus.respLayer23.utilization            0.0                       # Layer utilization (%)
system.tol2bus.respLayer24.occupancy         19147999                       # Layer occupancy (ticks)
system.tol2bus.respLayer24.utilization            0.0                       # Layer utilization (%)
system.tol2bus.respLayer25.occupancy         33648997                       # Layer occupancy (ticks)
system.tol2bus.respLayer25.utilization            0.0                       # Layer utilization (%)
system.tol2bus.respLayer26.occupancy            33000                       # Layer occupancy (ticks)
system.tol2bus.respLayer26.utilization            0.0                       # Layer utilization (%)
system.tol2bus.respLayer27.occupancy           157500                       # Layer occupancy (ticks)
system.tol2bus.respLayer27.utilization            0.0                       # Layer utilization (%)
system.tol2bus.respLayer28.occupancy         18581997                       # Layer occupancy (ticks)
system.tol2bus.respLayer28.utilization            0.0                       # Layer utilization (%)
system.tol2bus.respLayer29.occupancy         33660000                       # Layer occupancy (ticks)
system.tol2bus.respLayer29.utilization            0.0                       # Layer utilization (%)
system.tol2bus.respLayer30.occupancy            82500                       # Layer occupancy (ticks)
system.tol2bus.respLayer30.utilization            0.0                       # Layer utilization (%)
system.tol2bus.respLayer31.occupancy           135000                       # Layer occupancy (ticks)
system.tol2bus.respLayer31.utilization            0.0                       # Layer utilization (%)

---------- End Simulation Statistics   ----------
