
---------- Begin Simulation Statistics ----------
sim_seconds                                  0.008096                       # Number of seconds simulated
sim_ticks                                  8095506000                       # Number of ticks simulated
final_tick                               4808269263500                       # Number of ticks from beginning of simulation (restored from checkpoints and never reset)
sim_freq                                 1000000000000                       # Frequency of simulated ticks
host_inst_rate                              126957755                       # Simulator instruction rate (inst/s)
host_op_rate                                274269702                       # Simulator op (including micro ops) rate (op/s)
host_tick_rate                             2069876927                       # Simulator tick rate (ticks/s)
host_mem_usage                                2419020                       # Number of bytes of host memory used
host_seconds                                     3.91                       # Real time elapsed on the host
sim_insts                                   496543262                       # Number of instructions simulated
sim_ops                                    1072695700                       # Number of ops (including micro ops) simulated
system.voltage_domain.voltage                       1                       # Voltage in Volts
system.clk_domain.clock                          1000                       # Clock period in ticks
system.mem_ctrls.pwrStateResidencyTicks::UNDEFINED 4808269263500                       # Cumulative time (in ticks) in various power states
system.mem_ctrls.bytes_read::l2.prefetcher      1064896                       # Number of bytes read from this memory
system.mem_ctrls.bytes_read::switch_cpus0.inst           64                       # Number of bytes read from this memory
system.mem_ctrls.bytes_read::switch_cpus0.data           64                       # Number of bytes read from this memory
system.mem_ctrls.bytes_read::switch_cpus_10.inst         6784                       # Number of bytes read from this memory
system.mem_ctrls.bytes_read::switch_cpus_10.data        14208                       # Number of bytes read from this memory
system.mem_ctrls.bytes_read::switch_cpus_11.inst        19648                       # Number of bytes read from this memory
system.mem_ctrls.bytes_read::switch_cpus_11.data        29248                       # Number of bytes read from this memory
system.mem_ctrls.bytes_read::switch_cpus_12.inst        39552                       # Number of bytes read from this memory
system.mem_ctrls.bytes_read::switch_cpus_12.data        22080                       # Number of bytes read from this memory
system.mem_ctrls.bytes_read::switch_cpus_13.dtb.walker           64                       # Number of bytes read from this memory
system.mem_ctrls.bytes_read::switch_cpus_13.inst         1856                       # Number of bytes read from this memory
system.mem_ctrls.bytes_read::switch_cpus_13.data         9984                       # Number of bytes read from this memory
system.mem_ctrls.bytes_read::switch_cpus_14.inst        18752                       # Number of bytes read from this memory
system.mem_ctrls.bytes_read::switch_cpus_14.data        14912                       # Number of bytes read from this memory
system.mem_ctrls.bytes_read::switch_cpus_15.itb.walker           64                       # Number of bytes read from this memory
system.mem_ctrls.bytes_read::switch_cpus_15.inst        23424                       # Number of bytes read from this memory
system.mem_ctrls.bytes_read::switch_cpus_15.data        48384                       # Number of bytes read from this memory
system.mem_ctrls.bytes_read::switch_cpus_16.inst          640                       # Number of bytes read from this memory
system.mem_ctrls.bytes_read::switch_cpus_16.data         5440                       # Number of bytes read from this memory
system.mem_ctrls.bytes_read::switch_cpus_17.inst         7616                       # Number of bytes read from this memory
system.mem_ctrls.bytes_read::switch_cpus_17.data        12032                       # Number of bytes read from this memory
system.mem_ctrls.bytes_read::total            1339712                       # Number of bytes read from this memory
system.mem_ctrls.bytes_inst_read::switch_cpus0.inst           64                       # Number of instructions bytes read from this memory
system.mem_ctrls.bytes_inst_read::switch_cpus_10.inst         6784                       # Number of instructions bytes read from this memory
system.mem_ctrls.bytes_inst_read::switch_cpus_11.inst        19648                       # Number of instructions bytes read from this memory
system.mem_ctrls.bytes_inst_read::switch_cpus_12.inst        39552                       # Number of instructions bytes read from this memory
system.mem_ctrls.bytes_inst_read::switch_cpus_13.inst         1856                       # Number of instructions bytes read from this memory
system.mem_ctrls.bytes_inst_read::switch_cpus_14.inst        18752                       # Number of instructions bytes read from this memory
system.mem_ctrls.bytes_inst_read::switch_cpus_15.inst        23424                       # Number of instructions bytes read from this memory
system.mem_ctrls.bytes_inst_read::switch_cpus_16.inst          640                       # Number of instructions bytes read from this memory
system.mem_ctrls.bytes_inst_read::switch_cpus_17.inst         7616                       # Number of instructions bytes read from this memory
system.mem_ctrls.bytes_inst_read::total        118336                       # Number of instructions bytes read from this memory
system.mem_ctrls.bytes_written::writebacks      2648768                       # Number of bytes written to this memory
system.mem_ctrls.bytes_written::total         2648768                       # Number of bytes written to this memory
system.mem_ctrls.num_reads::l2.prefetcher        16639                       # Number of read requests responded to by this memory
system.mem_ctrls.num_reads::switch_cpus0.inst            1                       # Number of read requests responded to by this memory
system.mem_ctrls.num_reads::switch_cpus0.data            1                       # Number of read requests responded to by this memory
system.mem_ctrls.num_reads::switch_cpus_10.inst          106                       # Number of read requests responded to by this memory
system.mem_ctrls.num_reads::switch_cpus_10.data          222                       # Number of read requests responded to by this memory
system.mem_ctrls.num_reads::switch_cpus_11.inst          307                       # Number of read requests responded to by this memory
system.mem_ctrls.num_reads::switch_cpus_11.data          457                       # Number of read requests responded to by this memory
system.mem_ctrls.num_reads::switch_cpus_12.inst          618                       # Number of read requests responded to by this memory
system.mem_ctrls.num_reads::switch_cpus_12.data          345                       # Number of read requests responded to by this memory
system.mem_ctrls.num_reads::switch_cpus_13.dtb.walker            1                       # Number of read requests responded to by this memory
system.mem_ctrls.num_reads::switch_cpus_13.inst           29                       # Number of read requests responded to by this memory
system.mem_ctrls.num_reads::switch_cpus_13.data          156                       # Number of read requests responded to by this memory
system.mem_ctrls.num_reads::switch_cpus_14.inst          293                       # Number of read requests responded to by this memory
system.mem_ctrls.num_reads::switch_cpus_14.data          233                       # Number of read requests responded to by this memory
system.mem_ctrls.num_reads::switch_cpus_15.itb.walker            1                       # Number of read requests responded to by this memory
system.mem_ctrls.num_reads::switch_cpus_15.inst          366                       # Number of read requests responded to by this memory
system.mem_ctrls.num_reads::switch_cpus_15.data          756                       # Number of read requests responded to by this memory
system.mem_ctrls.num_reads::switch_cpus_16.inst           10                       # Number of read requests responded to by this memory
system.mem_ctrls.num_reads::switch_cpus_16.data           85                       # Number of read requests responded to by this memory
system.mem_ctrls.num_reads::switch_cpus_17.inst          119                       # Number of read requests responded to by this memory
system.mem_ctrls.num_reads::switch_cpus_17.data          188                       # Number of read requests responded to by this memory
system.mem_ctrls.num_reads::total               20933                       # Number of read requests responded to by this memory
system.mem_ctrls.num_writes::writebacks         41387                       # Number of write requests responded to by this memory
system.mem_ctrls.num_writes::total              41387                       # Number of write requests responded to by this memory
system.mem_ctrls.bw_read::l2.prefetcher     131541623                       # Total read bandwidth from this memory (bytes/s)
system.mem_ctrls.bw_read::switch_cpus0.inst         7906                       # Total read bandwidth from this memory (bytes/s)
system.mem_ctrls.bw_read::switch_cpus0.data         7906                       # Total read bandwidth from this memory (bytes/s)
system.mem_ctrls.bw_read::switch_cpus_10.inst       837996                       # Total read bandwidth from this memory (bytes/s)
system.mem_ctrls.bw_read::switch_cpus_10.data      1755048                       # Total read bandwidth from this memory (bytes/s)
system.mem_ctrls.bw_read::switch_cpus_11.inst      2427026                       # Total read bandwidth from this memory (bytes/s)
system.mem_ctrls.bw_read::switch_cpus_11.data      3612869                       # Total read bandwidth from this memory (bytes/s)
system.mem_ctrls.bw_read::switch_cpus_12.inst      4885674                       # Total read bandwidth from this memory (bytes/s)
system.mem_ctrls.bw_read::switch_cpus_12.data      2727439                       # Total read bandwidth from this memory (bytes/s)
system.mem_ctrls.bw_read::switch_cpus_13.dtb.walker         7906                       # Total read bandwidth from this memory (bytes/s)
system.mem_ctrls.bw_read::switch_cpus_13.inst       229263                       # Total read bandwidth from this memory (bytes/s)
system.mem_ctrls.bw_read::switch_cpus_13.data      1233277                       # Total read bandwidth from this memory (bytes/s)
system.mem_ctrls.bw_read::switch_cpus_14.inst      2316347                       # Total read bandwidth from this memory (bytes/s)
system.mem_ctrls.bw_read::switch_cpus_14.data      1842010                       # Total read bandwidth from this memory (bytes/s)
system.mem_ctrls.bw_read::switch_cpus_15.itb.walker         7906                       # Total read bandwidth from this memory (bytes/s)
system.mem_ctrls.bw_read::switch_cpus_15.inst      2893457                       # Total read bandwidth from this memory (bytes/s)
system.mem_ctrls.bw_read::switch_cpus_15.data      5976649                       # Total read bandwidth from this memory (bytes/s)
system.mem_ctrls.bw_read::switch_cpus_16.inst        79056                       # Total read bandwidth from this memory (bytes/s)
system.mem_ctrls.bw_read::switch_cpus_16.data       671978                       # Total read bandwidth from this memory (bytes/s)
system.mem_ctrls.bw_read::switch_cpus_17.inst       940769                       # Total read bandwidth from this memory (bytes/s)
system.mem_ctrls.bw_read::switch_cpus_17.data      1486257                       # Total read bandwidth from this memory (bytes/s)
system.mem_ctrls.bw_read::total             165488359                       # Total read bandwidth from this memory (bytes/s)
system.mem_ctrls.bw_inst_read::switch_cpus0.inst         7906                       # Instruction read bandwidth from this memory (bytes/s)
system.mem_ctrls.bw_inst_read::switch_cpus_10.inst       837996                       # Instruction read bandwidth from this memory (bytes/s)
system.mem_ctrls.bw_inst_read::switch_cpus_11.inst      2427026                       # Instruction read bandwidth from this memory (bytes/s)
system.mem_ctrls.bw_inst_read::switch_cpus_12.inst      4885674                       # Instruction read bandwidth from this memory (bytes/s)
system.mem_ctrls.bw_inst_read::switch_cpus_13.inst       229263                       # Instruction read bandwidth from this memory (bytes/s)
system.mem_ctrls.bw_inst_read::switch_cpus_14.inst      2316347                       # Instruction read bandwidth from this memory (bytes/s)
system.mem_ctrls.bw_inst_read::switch_cpus_15.inst      2893457                       # Instruction read bandwidth from this memory (bytes/s)
system.mem_ctrls.bw_inst_read::switch_cpus_16.inst        79056                       # Instruction read bandwidth from this memory (bytes/s)
system.mem_ctrls.bw_inst_read::switch_cpus_17.inst       940769                       # Instruction read bandwidth from this memory (bytes/s)
system.mem_ctrls.bw_inst_read::total         14617493                       # Instruction read bandwidth from this memory (bytes/s)
system.mem_ctrls.bw_write::writebacks       327189925                       # Write bandwidth from this memory (bytes/s)
system.mem_ctrls.bw_write::total            327189925                       # Write bandwidth from this memory (bytes/s)
system.mem_ctrls.bw_total::writebacks       327189925                       # Total bandwidth to/from this memory (bytes/s)
system.mem_ctrls.bw_total::l2.prefetcher    131541623                       # Total bandwidth to/from this memory (bytes/s)
system.mem_ctrls.bw_total::switch_cpus0.inst         7906                       # Total bandwidth to/from this memory (bytes/s)
system.mem_ctrls.bw_total::switch_cpus0.data         7906                       # Total bandwidth to/from this memory (bytes/s)
system.mem_ctrls.bw_total::switch_cpus_10.inst       837996                       # Total bandwidth to/from this memory (bytes/s)
system.mem_ctrls.bw_total::switch_cpus_10.data      1755048                       # Total bandwidth to/from this memory (bytes/s)
system.mem_ctrls.bw_total::switch_cpus_11.inst      2427026                       # Total bandwidth to/from this memory (bytes/s)
system.mem_ctrls.bw_total::switch_cpus_11.data      3612869                       # Total bandwidth to/from this memory (bytes/s)
system.mem_ctrls.bw_total::switch_cpus_12.inst      4885674                       # Total bandwidth to/from this memory (bytes/s)
system.mem_ctrls.bw_total::switch_cpus_12.data      2727439                       # Total bandwidth to/from this memory (bytes/s)
system.mem_ctrls.bw_total::switch_cpus_13.dtb.walker         7906                       # Total bandwidth to/from this memory (bytes/s)
system.mem_ctrls.bw_total::switch_cpus_13.inst       229263                       # Total bandwidth to/from this memory (bytes/s)
system.mem_ctrls.bw_total::switch_cpus_13.data      1233277                       # Total bandwidth to/from this memory (bytes/s)
system.mem_ctrls.bw_total::switch_cpus_14.inst      2316347                       # Total bandwidth to/from this memory (bytes/s)
system.mem_ctrls.bw_total::switch_cpus_14.data      1842010                       # Total bandwidth to/from this memory (bytes/s)
system.mem_ctrls.bw_total::switch_cpus_15.itb.walker         7906                       # Total bandwidth to/from this memory (bytes/s)
system.mem_ctrls.bw_total::switch_cpus_15.inst      2893457                       # Total bandwidth to/from this memory (bytes/s)
system.mem_ctrls.bw_total::switch_cpus_15.data      5976649                       # Total bandwidth to/from this memory (bytes/s)
system.mem_ctrls.bw_total::switch_cpus_16.inst        79056                       # Total bandwidth to/from this memory (bytes/s)
system.mem_ctrls.bw_total::switch_cpus_16.data       671978                       # Total bandwidth to/from this memory (bytes/s)
system.mem_ctrls.bw_total::switch_cpus_17.inst       940769                       # Total bandwidth to/from this memory (bytes/s)
system.mem_ctrls.bw_total::switch_cpus_17.data      1486257                       # Total bandwidth to/from this memory (bytes/s)
system.mem_ctrls.bw_total::total            492678283                       # Total bandwidth to/from this memory (bytes/s)
system.mem_ctrls.readReqs                       20931                       # Number of read requests accepted
system.mem_ctrls.writeReqs                      41385                       # Number of write requests accepted
system.mem_ctrls.readBursts                     20931                       # Number of DRAM read bursts, including those serviced by the write queue
system.mem_ctrls.writeBursts                    41385                       # Number of DRAM write bursts, including those merged in the write queue
system.mem_ctrls.bytesReadDRAM                1339264                       # Total number of bytes read from DRAM
system.mem_ctrls.bytesReadWrQ                     320                       # Total number of bytes read from write queue
system.mem_ctrls.bytesWritten                 2647616                       # Total number of bytes written to DRAM
system.mem_ctrls.bytesReadSys                 1339584                       # Total read bytes from the system interface side
system.mem_ctrls.bytesWrittenSys              2648640                       # Total written bytes from the system interface side
system.mem_ctrls.servicedByWrQ                      5                       # Number of DRAM read bursts serviced by the write queue
system.mem_ctrls.mergedWrBursts                     0                       # Number of DRAM write bursts merged with an existing one
system.mem_ctrls.neitherReadNorWriteReqs            0                       # Number of requests that are neither read nor write
system.mem_ctrls.perBankRdBursts::0               965                       # Per bank write bursts
system.mem_ctrls.perBankRdBursts::1              1053                       # Per bank write bursts
system.mem_ctrls.perBankRdBursts::2              1052                       # Per bank write bursts
system.mem_ctrls.perBankRdBursts::3              1088                       # Per bank write bursts
system.mem_ctrls.perBankRdBursts::4              1326                       # Per bank write bursts
system.mem_ctrls.perBankRdBursts::5              1400                       # Per bank write bursts
system.mem_ctrls.perBankRdBursts::6              1420                       # Per bank write bursts
system.mem_ctrls.perBankRdBursts::7              1470                       # Per bank write bursts
system.mem_ctrls.perBankRdBursts::8              1616                       # Per bank write bursts
system.mem_ctrls.perBankRdBursts::9              1422                       # Per bank write bursts
system.mem_ctrls.perBankRdBursts::10             1521                       # Per bank write bursts
system.mem_ctrls.perBankRdBursts::11             1233                       # Per bank write bursts
system.mem_ctrls.perBankRdBursts::12             1225                       # Per bank write bursts
system.mem_ctrls.perBankRdBursts::13             1435                       # Per bank write bursts
system.mem_ctrls.perBankRdBursts::14             1364                       # Per bank write bursts
system.mem_ctrls.perBankRdBursts::15             1336                       # Per bank write bursts
system.mem_ctrls.perBankWrBursts::0              2393                       # Per bank write bursts
system.mem_ctrls.perBankWrBursts::1              2124                       # Per bank write bursts
system.mem_ctrls.perBankWrBursts::2              1988                       # Per bank write bursts
system.mem_ctrls.perBankWrBursts::3              1978                       # Per bank write bursts
system.mem_ctrls.perBankWrBursts::4              2412                       # Per bank write bursts
system.mem_ctrls.perBankWrBursts::5              2343                       # Per bank write bursts
system.mem_ctrls.perBankWrBursts::6              2495                       # Per bank write bursts
system.mem_ctrls.perBankWrBursts::7              2668                       # Per bank write bursts
system.mem_ctrls.perBankWrBursts::8              2924                       # Per bank write bursts
system.mem_ctrls.perBankWrBursts::9              2864                       # Per bank write bursts
system.mem_ctrls.perBankWrBursts::10             2875                       # Per bank write bursts
system.mem_ctrls.perBankWrBursts::11             2843                       # Per bank write bursts
system.mem_ctrls.perBankWrBursts::12             2801                       # Per bank write bursts
system.mem_ctrls.perBankWrBursts::13             2932                       # Per bank write bursts
system.mem_ctrls.perBankWrBursts::14             3077                       # Per bank write bursts
system.mem_ctrls.perBankWrBursts::15             2652                       # Per bank write bursts
system.mem_ctrls.numRdRetry                         0                       # Number of times read queue was full causing retry
system.mem_ctrls.numWrRetry                        37                       # Number of times write queue was full causing retry
system.mem_ctrls.totGap                    8071117500                       # Total gap between requests
system.mem_ctrls.readPktSize::0                     0                       # Read request sizes (log2)
system.mem_ctrls.readPktSize::1                     0                       # Read request sizes (log2)
system.mem_ctrls.readPktSize::2                     0                       # Read request sizes (log2)
system.mem_ctrls.readPktSize::3                     0                       # Read request sizes (log2)
system.mem_ctrls.readPktSize::4                     0                       # Read request sizes (log2)
system.mem_ctrls.readPktSize::5                     0                       # Read request sizes (log2)
system.mem_ctrls.readPktSize::6                 20931                       # Read request sizes (log2)
system.mem_ctrls.writePktSize::0                    0                       # Write request sizes (log2)
system.mem_ctrls.writePktSize::1                    0                       # Write request sizes (log2)
system.mem_ctrls.writePktSize::2                    0                       # Write request sizes (log2)
system.mem_ctrls.writePktSize::3                    0                       # Write request sizes (log2)
system.mem_ctrls.writePktSize::4                    0                       # Write request sizes (log2)
system.mem_ctrls.writePktSize::5                    0                       # Write request sizes (log2)
system.mem_ctrls.writePktSize::6                41385                       # Write request sizes (log2)
system.mem_ctrls.rdQLenPdf::0                   16859                       # What read queue length does an incoming req see
system.mem_ctrls.rdQLenPdf::1                    1398                       # What read queue length does an incoming req see
system.mem_ctrls.rdQLenPdf::2                     924                       # What read queue length does an incoming req see
system.mem_ctrls.rdQLenPdf::3                     897                       # What read queue length does an incoming req see
system.mem_ctrls.rdQLenPdf::4                     839                       # What read queue length does an incoming req see
system.mem_ctrls.rdQLenPdf::5                       7                       # What read queue length does an incoming req see
system.mem_ctrls.rdQLenPdf::6                       2                       # What read queue length does an incoming req see
system.mem_ctrls.rdQLenPdf::7                       0                       # What read queue length does an incoming req see
system.mem_ctrls.rdQLenPdf::8                       0                       # What read queue length does an incoming req see
system.mem_ctrls.rdQLenPdf::9                       0                       # What read queue length does an incoming req see
system.mem_ctrls.rdQLenPdf::10                      0                       # What read queue length does an incoming req see
system.mem_ctrls.rdQLenPdf::11                      0                       # What read queue length does an incoming req see
system.mem_ctrls.rdQLenPdf::12                      0                       # What read queue length does an incoming req see
system.mem_ctrls.rdQLenPdf::13                      0                       # What read queue length does an incoming req see
system.mem_ctrls.rdQLenPdf::14                      0                       # What read queue length does an incoming req see
system.mem_ctrls.rdQLenPdf::15                      0                       # What read queue length does an incoming req see
system.mem_ctrls.rdQLenPdf::16                      0                       # What read queue length does an incoming req see
system.mem_ctrls.rdQLenPdf::17                      0                       # What read queue length does an incoming req see
system.mem_ctrls.rdQLenPdf::18                      0                       # What read queue length does an incoming req see
system.mem_ctrls.rdQLenPdf::19                      0                       # What read queue length does an incoming req see
system.mem_ctrls.rdQLenPdf::20                      0                       # What read queue length does an incoming req see
system.mem_ctrls.rdQLenPdf::21                      0                       # What read queue length does an incoming req see
system.mem_ctrls.rdQLenPdf::22                      0                       # What read queue length does an incoming req see
system.mem_ctrls.rdQLenPdf::23                      0                       # What read queue length does an incoming req see
system.mem_ctrls.rdQLenPdf::24                      0                       # What read queue length does an incoming req see
system.mem_ctrls.rdQLenPdf::25                      0                       # What read queue length does an incoming req see
system.mem_ctrls.rdQLenPdf::26                      0                       # What read queue length does an incoming req see
system.mem_ctrls.rdQLenPdf::27                      0                       # What read queue length does an incoming req see
system.mem_ctrls.rdQLenPdf::28                      0                       # What read queue length does an incoming req see
system.mem_ctrls.rdQLenPdf::29                      0                       # What read queue length does an incoming req see
system.mem_ctrls.rdQLenPdf::30                      0                       # What read queue length does an incoming req see
system.mem_ctrls.rdQLenPdf::31                      0                       # What read queue length does an incoming req see
system.mem_ctrls.wrQLenPdf::0                       1                       # What write queue length does an incoming req see
system.mem_ctrls.wrQLenPdf::1                       1                       # What write queue length does an incoming req see
system.mem_ctrls.wrQLenPdf::2                       1                       # What write queue length does an incoming req see
system.mem_ctrls.wrQLenPdf::3                       1                       # What write queue length does an incoming req see
system.mem_ctrls.wrQLenPdf::4                       1                       # What write queue length does an incoming req see
system.mem_ctrls.wrQLenPdf::5                       1                       # What write queue length does an incoming req see
system.mem_ctrls.wrQLenPdf::6                       1                       # What write queue length does an incoming req see
system.mem_ctrls.wrQLenPdf::7                       1                       # What write queue length does an incoming req see
system.mem_ctrls.wrQLenPdf::8                       1                       # What write queue length does an incoming req see
system.mem_ctrls.wrQLenPdf::9                       1                       # What write queue length does an incoming req see
system.mem_ctrls.wrQLenPdf::10                      1                       # What write queue length does an incoming req see
system.mem_ctrls.wrQLenPdf::11                      1                       # What write queue length does an incoming req see
system.mem_ctrls.wrQLenPdf::12                      1                       # What write queue length does an incoming req see
system.mem_ctrls.wrQLenPdf::13                      1                       # What write queue length does an incoming req see
system.mem_ctrls.wrQLenPdf::14                      1                       # What write queue length does an incoming req see
system.mem_ctrls.wrQLenPdf::15                    632                       # What write queue length does an incoming req see
system.mem_ctrls.wrQLenPdf::16                   1307                       # What write queue length does an incoming req see
system.mem_ctrls.wrQLenPdf::17                   1206                       # What write queue length does an incoming req see
system.mem_ctrls.wrQLenPdf::18                   1531                       # What write queue length does an incoming req see
system.mem_ctrls.wrQLenPdf::19                   1731                       # What write queue length does an incoming req see
system.mem_ctrls.wrQLenPdf::20                   1534                       # What write queue length does an incoming req see
system.mem_ctrls.wrQLenPdf::21                   1776                       # What write queue length does an incoming req see
system.mem_ctrls.wrQLenPdf::22                   2041                       # What write queue length does an incoming req see
system.mem_ctrls.wrQLenPdf::23                   2832                       # What write queue length does an incoming req see
system.mem_ctrls.wrQLenPdf::24                   2592                       # What write queue length does an incoming req see
system.mem_ctrls.wrQLenPdf::25                   3678                       # What write queue length does an incoming req see
system.mem_ctrls.wrQLenPdf::26                   3965                       # What write queue length does an incoming req see
system.mem_ctrls.wrQLenPdf::27                   2619                       # What write queue length does an incoming req see
system.mem_ctrls.wrQLenPdf::28                   1998                       # What write queue length does an incoming req see
system.mem_ctrls.wrQLenPdf::29                   2087                       # What write queue length does an incoming req see
system.mem_ctrls.wrQLenPdf::30                   1827                       # What write queue length does an incoming req see
system.mem_ctrls.wrQLenPdf::31                   1612                       # What write queue length does an incoming req see
system.mem_ctrls.wrQLenPdf::32                   1673                       # What write queue length does an incoming req see
system.mem_ctrls.wrQLenPdf::33                    345                       # What write queue length does an incoming req see
system.mem_ctrls.wrQLenPdf::34                    318                       # What write queue length does an incoming req see
system.mem_ctrls.wrQLenPdf::35                    227                       # What write queue length does an incoming req see
system.mem_ctrls.wrQLenPdf::36                    221                       # What write queue length does an incoming req see
system.mem_ctrls.wrQLenPdf::37                    187                       # What write queue length does an incoming req see
system.mem_ctrls.wrQLenPdf::38                    170                       # What write queue length does an incoming req see
system.mem_ctrls.wrQLenPdf::39                    140                       # What write queue length does an incoming req see
system.mem_ctrls.wrQLenPdf::40                    153                       # What write queue length does an incoming req see
system.mem_ctrls.wrQLenPdf::41                    159                       # What write queue length does an incoming req see
system.mem_ctrls.wrQLenPdf::42                    172                       # What write queue length does an incoming req see
system.mem_ctrls.wrQLenPdf::43                    132                       # What write queue length does an incoming req see
system.mem_ctrls.wrQLenPdf::44                    190                       # What write queue length does an incoming req see
system.mem_ctrls.wrQLenPdf::45                    141                       # What write queue length does an incoming req see
system.mem_ctrls.wrQLenPdf::46                    146                       # What write queue length does an incoming req see
system.mem_ctrls.wrQLenPdf::47                    186                       # What write queue length does an incoming req see
system.mem_ctrls.wrQLenPdf::48                    129                       # What write queue length does an incoming req see
system.mem_ctrls.wrQLenPdf::49                    151                       # What write queue length does an incoming req see
system.mem_ctrls.wrQLenPdf::50                    123                       # What write queue length does an incoming req see
system.mem_ctrls.wrQLenPdf::51                    109                       # What write queue length does an incoming req see
system.mem_ctrls.wrQLenPdf::52                    137                       # What write queue length does an incoming req see
system.mem_ctrls.wrQLenPdf::53                    106                       # What write queue length does an incoming req see
system.mem_ctrls.wrQLenPdf::54                     98                       # What write queue length does an incoming req see
system.mem_ctrls.wrQLenPdf::55                    127                       # What write queue length does an incoming req see
system.mem_ctrls.wrQLenPdf::56                    155                       # What write queue length does an incoming req see
system.mem_ctrls.wrQLenPdf::57                    112                       # What write queue length does an incoming req see
system.mem_ctrls.wrQLenPdf::58                    100                       # What write queue length does an incoming req see
system.mem_ctrls.wrQLenPdf::59                    110                       # What write queue length does an incoming req see
system.mem_ctrls.wrQLenPdf::60                    125                       # What write queue length does an incoming req see
system.mem_ctrls.wrQLenPdf::61                    129                       # What write queue length does an incoming req see
system.mem_ctrls.wrQLenPdf::62                     48                       # What write queue length does an incoming req see
system.mem_ctrls.wrQLenPdf::63                     83                       # What write queue length does an incoming req see
system.mem_ctrls.bytesPerActivate::samples         8729                       # Bytes accessed per row activation
system.mem_ctrls.bytesPerActivate::mean    456.658953                       # Bytes accessed per row activation
system.mem_ctrls.bytesPerActivate::gmean   257.435262                       # Bytes accessed per row activation
system.mem_ctrls.bytesPerActivate::stdev   412.757136                       # Bytes accessed per row activation
system.mem_ctrls.bytesPerActivate::0-127         2736     31.34%     31.34% # Bytes accessed per row activation
system.mem_ctrls.bytesPerActivate::128-255         1499     17.17%     48.52% # Bytes accessed per row activation
system.mem_ctrls.bytesPerActivate::256-383          712      8.16%     56.67% # Bytes accessed per row activation
system.mem_ctrls.bytesPerActivate::384-511          398      4.56%     61.23% # Bytes accessed per row activation
system.mem_ctrls.bytesPerActivate::512-639          272      3.12%     64.35% # Bytes accessed per row activation
system.mem_ctrls.bytesPerActivate::640-767          200      2.29%     66.64% # Bytes accessed per row activation
system.mem_ctrls.bytesPerActivate::768-895          151      1.73%     68.37% # Bytes accessed per row activation
system.mem_ctrls.bytesPerActivate::896-1023          162      1.86%     70.23% # Bytes accessed per row activation
system.mem_ctrls.bytesPerActivate::1024-1151         2599     29.77%    100.00% # Bytes accessed per row activation
system.mem_ctrls.bytesPerActivate::total         8729                       # Bytes accessed per row activation
system.mem_ctrls.rdPerTurnAround::samples         1336                       # Reads before turning the bus around for writes
system.mem_ctrls.rdPerTurnAround::mean      15.660180                       # Reads before turning the bus around for writes
system.mem_ctrls.rdPerTurnAround::stdev     21.357133                       # Reads before turning the bus around for writes
system.mem_ctrls.rdPerTurnAround::0-7             641     47.98%     47.98% # Reads before turning the bus around for writes
system.mem_ctrls.rdPerTurnAround::8-15             24      1.80%     49.78% # Reads before turning the bus around for writes
system.mem_ctrls.rdPerTurnAround::16-23           326     24.40%     74.18% # Reads before turning the bus around for writes
system.mem_ctrls.rdPerTurnAround::24-31           177     13.25%     87.43% # Reads before turning the bus around for writes
system.mem_ctrls.rdPerTurnAround::32-39            67      5.01%     92.44% # Reads before turning the bus around for writes
system.mem_ctrls.rdPerTurnAround::40-47            31      2.32%     94.76% # Reads before turning the bus around for writes
system.mem_ctrls.rdPerTurnAround::48-55            20      1.50%     96.26% # Reads before turning the bus around for writes
system.mem_ctrls.rdPerTurnAround::56-63             8      0.60%     96.86% # Reads before turning the bus around for writes
system.mem_ctrls.rdPerTurnAround::64-71            12      0.90%     97.75% # Reads before turning the bus around for writes
system.mem_ctrls.rdPerTurnAround::72-79             8      0.60%     98.35% # Reads before turning the bus around for writes
system.mem_ctrls.rdPerTurnAround::80-87             4      0.30%     98.65% # Reads before turning the bus around for writes
system.mem_ctrls.rdPerTurnAround::88-95             4      0.30%     98.95% # Reads before turning the bus around for writes
system.mem_ctrls.rdPerTurnAround::96-103            2      0.15%     99.10% # Reads before turning the bus around for writes
system.mem_ctrls.rdPerTurnAround::104-111            2      0.15%     99.25% # Reads before turning the bus around for writes
system.mem_ctrls.rdPerTurnAround::112-119            3      0.22%     99.48% # Reads before turning the bus around for writes
system.mem_ctrls.rdPerTurnAround::120-127            2      0.15%     99.63% # Reads before turning the bus around for writes
system.mem_ctrls.rdPerTurnAround::136-143            1      0.07%     99.70% # Reads before turning the bus around for writes
system.mem_ctrls.rdPerTurnAround::168-175            1      0.07%     99.78% # Reads before turning the bus around for writes
system.mem_ctrls.rdPerTurnAround::184-191            1      0.07%     99.85% # Reads before turning the bus around for writes
system.mem_ctrls.rdPerTurnAround::200-207            1      0.07%     99.93% # Reads before turning the bus around for writes
system.mem_ctrls.rdPerTurnAround::216-223            1      0.07%    100.00% # Reads before turning the bus around for writes
system.mem_ctrls.rdPerTurnAround::total          1336                       # Reads before turning the bus around for writes
system.mem_ctrls.wrPerTurnAround::samples         1336                       # Writes before turning the bus around for reads
system.mem_ctrls.wrPerTurnAround::mean      30.964820                       # Writes before turning the bus around for reads
system.mem_ctrls.wrPerTurnAround::gmean     25.342644                       # Writes before turning the bus around for reads
system.mem_ctrls.wrPerTurnAround::stdev     24.228212                       # Writes before turning the bus around for reads
system.mem_ctrls.wrPerTurnAround::16-19           733     54.87%     54.87% # Writes before turning the bus around for reads
system.mem_ctrls.wrPerTurnAround::20-23            32      2.40%     57.26% # Writes before turning the bus around for reads
system.mem_ctrls.wrPerTurnAround::24-27            26      1.95%     59.21% # Writes before turning the bus around for reads
system.mem_ctrls.wrPerTurnAround::28-31            39      2.92%     62.13% # Writes before turning the bus around for reads
system.mem_ctrls.wrPerTurnAround::32-35           210     15.72%     77.84% # Writes before turning the bus around for reads
system.mem_ctrls.wrPerTurnAround::36-39            24      1.80%     79.64% # Writes before turning the bus around for reads
system.mem_ctrls.wrPerTurnAround::40-43            19      1.42%     81.06% # Writes before turning the bus around for reads
system.mem_ctrls.wrPerTurnAround::44-47            13      0.97%     82.04% # Writes before turning the bus around for reads
system.mem_ctrls.wrPerTurnAround::48-51             8      0.60%     82.63% # Writes before turning the bus around for reads
system.mem_ctrls.wrPerTurnAround::52-55             5      0.37%     83.01% # Writes before turning the bus around for reads
system.mem_ctrls.wrPerTurnAround::56-59             4      0.30%     83.31% # Writes before turning the bus around for reads
system.mem_ctrls.wrPerTurnAround::60-63            10      0.75%     84.06% # Writes before turning the bus around for reads
system.mem_ctrls.wrPerTurnAround::64-67           153     11.45%     95.51% # Writes before turning the bus around for reads
system.mem_ctrls.wrPerTurnAround::68-71             6      0.45%     95.96% # Writes before turning the bus around for reads
system.mem_ctrls.wrPerTurnAround::76-79            10      0.75%     96.71% # Writes before turning the bus around for reads
system.mem_ctrls.wrPerTurnAround::80-83             3      0.22%     96.93% # Writes before turning the bus around for reads
system.mem_ctrls.wrPerTurnAround::84-87             1      0.07%     97.01% # Writes before turning the bus around for reads
system.mem_ctrls.wrPerTurnAround::92-95             2      0.15%     97.16% # Writes before turning the bus around for reads
system.mem_ctrls.wrPerTurnAround::96-99             2      0.15%     97.31% # Writes before turning the bus around for reads
system.mem_ctrls.wrPerTurnAround::104-107            3      0.22%     97.53% # Writes before turning the bus around for reads
system.mem_ctrls.wrPerTurnAround::108-111            8      0.60%     98.13% # Writes before turning the bus around for reads
system.mem_ctrls.wrPerTurnAround::112-115            3      0.22%     98.35% # Writes before turning the bus around for reads
system.mem_ctrls.wrPerTurnAround::116-119            3      0.22%     98.58% # Writes before turning the bus around for reads
system.mem_ctrls.wrPerTurnAround::128-131            9      0.67%     99.25% # Writes before turning the bus around for reads
system.mem_ctrls.wrPerTurnAround::140-143            5      0.37%     99.63% # Writes before turning the bus around for reads
system.mem_ctrls.wrPerTurnAround::156-159            1      0.07%     99.70% # Writes before turning the bus around for reads
system.mem_ctrls.wrPerTurnAround::180-183            2      0.15%     99.85% # Writes before turning the bus around for reads
system.mem_ctrls.wrPerTurnAround::192-195            2      0.15%    100.00% # Writes before turning the bus around for reads
system.mem_ctrls.wrPerTurnAround::total          1336                       # Writes before turning the bus around for reads
system.mem_ctrls.totQLat                    932742896                       # Total ticks spent queuing
system.mem_ctrls.totMemAccLat              1325105396                       # Total ticks spent from burst creation until serviced by the DRAM
system.mem_ctrls.totBusLat                  104630000                       # Total ticks spent in databus transfers
system.mem_ctrls.avgQLat                     44573.40                       # Average queueing delay per DRAM burst
system.mem_ctrls.avgBusLat                    5000.00                       # Average bus latency per DRAM burst
system.mem_ctrls.avgMemAccLat                63323.40                       # Average memory access latency per DRAM burst
system.mem_ctrls.avgRdBW                       165.43                       # Average DRAM read bandwidth in MiByte/s
system.mem_ctrls.avgWrBW                       327.05                       # Average achieved write bandwidth in MiByte/s
system.mem_ctrls.avgRdBWSys                    165.47                       # Average system read bandwidth in MiByte/s
system.mem_ctrls.avgWrBWSys                    327.17                       # Average system write bandwidth in MiByte/s
system.mem_ctrls.peakBW                      12800.00                       # Theoretical peak bandwidth in MiByte/s
system.mem_ctrls.busUtil                         3.85                       # Data bus utilization in percentage
system.mem_ctrls.busUtilRead                     1.29                       # Data bus utilization in percentage for reads
system.mem_ctrls.busUtilWrite                    2.56                       # Data bus utilization in percentage for writes
system.mem_ctrls.avgRdQLen                       1.16                       # Average read queue length when enqueuing
system.mem_ctrls.avgWrQLen                      25.22                       # Average write queue length when enqueuing
system.mem_ctrls.readRowHits                    18121                       # Number of row buffer hits during reads
system.mem_ctrls.writeRowHits                   35435                       # Number of row buffer hits during writes
system.mem_ctrls.readRowHitRate                 86.60                       # Row buffer hit rate for reads
system.mem_ctrls.writeRowHitRate                85.62                       # Row buffer hit rate for writes
system.mem_ctrls.avgGap                     129519.18                       # Average gap between requests
system.mem_ctrls.pageHitRate                    85.95                       # Row buffer hit rate, read and write combined
system.mem_ctrls_0.actEnergy                 28738500                       # Energy for activate commands per rank (pJ)
system.mem_ctrls_0.preEnergy                 15259695                       # Energy for precharge commands per rank (pJ)
system.mem_ctrls_0.readEnergy                69786360                       # Energy for read commands per rank (pJ)
system.mem_ctrls_0.writeEnergy               96053220                       # Energy for write commands per rank (pJ)
system.mem_ctrls_0.refreshEnergy         382920720.000000                       # Energy for refresh commands per rank (pJ)
system.mem_ctrls_0.actBackEnergy            467808120                       # Energy for active background per rank (pJ)
system.mem_ctrls_0.preBackEnergy             25133760                       # Energy for precharge background per rank (pJ)
system.mem_ctrls_0.actPowerDownEnergy       696052080                       # Energy for active power-down per rank (pJ)
system.mem_ctrls_0.prePowerDownEnergy       504571200                       # Energy for precharge power-down per rank (pJ)
system.mem_ctrls_0.selfRefreshEnergy       1061292540                       # Energy for self refresh per rank (pJ)
system.mem_ctrls_0.totalEnergy             3347716395                       # Total energy per rank (pJ)
system.mem_ctrls_0.averagePower            413.527752                       # Core power per rank (mW)
system.mem_ctrls_0.totalIdleTime           6971601530                       # Total Idle time Per DRAM Rank
system.mem_ctrls_0.memoryStateTime::IDLE     46868250                       # Time in different power states
system.mem_ctrls_0.memoryStateTime::REF     162760000                       # Time in different power states
system.mem_ctrls_0.memoryStateTime::SREF   4131904000                       # Time in different power states
system.mem_ctrls_0.memoryStateTime::PRE_PDN   1313996970                       # Time in different power states
system.mem_ctrls_0.memoryStateTime::ACT     889657220                       # Time in different power states
system.mem_ctrls_0.memoryStateTime::ACT_PDN   1526491560                       # Time in different power states
system.mem_ctrls_1.actEnergy                 33657960                       # Energy for activate commands per rank (pJ)
system.mem_ctrls_1.preEnergy                 17866860                       # Energy for precharge commands per rank (pJ)
system.mem_ctrls_1.readEnergy                79625280                       # Energy for read commands per rank (pJ)
system.mem_ctrls_1.writeEnergy              119892960                       # Energy for write commands per rank (pJ)
system.mem_ctrls_1.refreshEnergy         401359920.000000                       # Energy for refresh commands per rank (pJ)
system.mem_ctrls_1.actBackEnergy            527878710                       # Energy for active background per rank (pJ)
system.mem_ctrls_1.preBackEnergy             23673600                       # Energy for precharge background per rank (pJ)
system.mem_ctrls_1.actPowerDownEnergy       786929460                       # Energy for active power-down per rank (pJ)
system.mem_ctrls_1.prePowerDownEnergy       527816640                       # Energy for precharge power-down per rank (pJ)
system.mem_ctrls_1.selfRefreshEnergy        958942440                       # Energy for self refresh per rank (pJ)
system.mem_ctrls_1.totalEnergy             3477682590                       # Total energy per rank (pJ)
system.mem_ctrls_1.averagePower            429.581868                       # Core power per rank (mW)
system.mem_ctrls_1.totalIdleTime           6851838071                       # Total Idle time Per DRAM Rank
system.mem_ctrls_1.memoryStateTime::IDLE     34491500                       # Time in different power states
system.mem_ctrls_1.memoryStateTime::REF     170422000                       # Time in different power states
system.mem_ctrls_1.memoryStateTime::SREF   3751601000                       # Time in different power states
system.mem_ctrls_1.memoryStateTime::PRE_PDN   1374569446                       # Time in different power states
system.mem_ctrls_1.memoryStateTime::ACT    1014884179                       # Time in different power states
system.mem_ctrls_1.memoryStateTime::ACT_PDN   1725709875                       # Time in different power states
system.pwrStateResidencyTicks::UNDEFINED 4808269263500                       # Cumulative time (in ticks) in various power states
system.apicbridge.pwrStateResidencyTicks::UNDEFINED 4808269263500                       # Cumulative time (in ticks) in various power states
system.bridge.pwrStateResidencyTicks::UNDEFINED 4808269263500                       # Cumulative time (in ticks) in various power states
system.cpu_voltage_domain.voltage                   1                       # Voltage in Volts
system.cpu_clk_domain.clock                       500                       # Clock period in ticks
system.cpu0.dtb.walker.pwrStateResidencyTicks::UNDEFINED 4808269263500                       # Cumulative time (in ticks) in various power states
system.cpu0.dtb.rdAccesses                          0                       # TLB accesses on read requests
system.cpu0.dtb.wrAccesses                          0                       # TLB accesses on write requests
system.cpu0.dtb.rdMisses                            0                       # TLB misses on read requests
system.cpu0.dtb.wrMisses                            0                       # TLB misses on write requests
system.cpu0.apic_clk_domain.clock                8000                       # Clock period in ticks
system.cpu0.interrupts.pwrStateResidencyTicks::UNDEFINED 4808269263500                       # Cumulative time (in ticks) in various power states
system.cpu0.itb.walker.pwrStateResidencyTicks::UNDEFINED 4808269263500                       # Cumulative time (in ticks) in various power states
system.cpu0.itb.rdAccesses                          0                       # TLB accesses on read requests
system.cpu0.itb.wrAccesses                          0                       # TLB accesses on write requests
system.cpu0.itb.rdMisses                            0                       # TLB misses on read requests
system.cpu0.itb.wrMisses                            0                       # TLB misses on write requests
system.cpu0.pwrStateResidencyTicks::OFF  4808269261500                       # Cumulative time (in ticks) in various power states
system.cpu0.numCycles                               0                       # number of cpu cycles simulated
system.cpu0.numWorkItemsStarted                     0                       # number of work items this cpu started
system.cpu0.numWorkItemsCompleted                   0                       # number of work items this cpu completed
system.cpu0.kern.inst.arm                           0                       # number of arm instructions executed
system.cpu0.kern.inst.quiesce                       0                       # number of quiesce instructions executed
system.cpu0.committedInsts                          0                       # Number of instructions committed
system.cpu0.committedOps                            0                       # Number of ops (including micro ops) committed
system.cpu0.num_int_alu_accesses                    0                       # Number of integer alu accesses
system.cpu0.num_fp_alu_accesses                     0                       # Number of float alu accesses
system.cpu0.num_vec_alu_accesses                    0                       # Number of vector alu accesses
system.cpu0.num_func_calls                          0                       # number of times a function call or return occured
system.cpu0.num_conditional_control_insts            0                       # number of instructions that are conditional controls
system.cpu0.num_int_insts                           0                       # number of integer instructions
system.cpu0.num_fp_insts                            0                       # number of float instructions
system.cpu0.num_vec_insts                           0                       # number of vector instructions
system.cpu0.num_int_register_reads                  0                       # number of times the integer registers were read
system.cpu0.num_int_register_writes                 0                       # number of times the integer registers were written
system.cpu0.num_fp_register_reads                   0                       # number of times the floating registers were read
system.cpu0.num_fp_register_writes                  0                       # number of times the floating registers were written
system.cpu0.num_vec_register_reads                  0                       # number of times the vector registers were read
system.cpu0.num_vec_register_writes                 0                       # number of times the vector registers were written
system.cpu0.num_mem_refs                            0                       # number of memory refs
system.cpu0.num_load_insts                          0                       # Number of load instructions
system.cpu0.num_store_insts                         0                       # Number of store instructions
system.cpu0.num_idle_cycles                         0                       # Number of idle cycles
system.cpu0.num_busy_cycles                         0                       # Number of busy cycles
system.cpu0.not_idle_fraction                       1                       # Percentage of non-idle cycles
system.cpu0.idle_fraction                           0                       # Percentage of idle cycles
system.cpu0.op_class::No_OpClass                    0                       # Class of executed instruction
system.cpu0.op_class::IntAlu                        0                       # Class of executed instruction
system.cpu0.op_class::IntMult                       0                       # Class of executed instruction
system.cpu0.op_class::IntDiv                        0                       # Class of executed instruction
system.cpu0.op_class::FloatAdd                      0                       # Class of executed instruction
system.cpu0.op_class::FloatCmp                      0                       # Class of executed instruction
system.cpu0.op_class::FloatCvt                      0                       # Class of executed instruction
system.cpu0.op_class::FloatMult                     0                       # Class of executed instruction
system.cpu0.op_class::FloatMultAcc                  0                       # Class of executed instruction
system.cpu0.op_class::FloatDiv                      0                       # Class of executed instruction
system.cpu0.op_class::FloatMisc                     0                       # Class of executed instruction
system.cpu0.op_class::FloatSqrt                     0                       # Class of executed instruction
system.cpu0.op_class::SimdAdd                       0                       # Class of executed instruction
system.cpu0.op_class::SimdAddAcc                    0                       # Class of executed instruction
system.cpu0.op_class::SimdAlu                       0                       # Class of executed instruction
system.cpu0.op_class::SimdCmp                       0                       # Class of executed instruction
system.cpu0.op_class::SimdCvt                       0                       # Class of executed instruction
system.cpu0.op_class::SimdMisc                      0                       # Class of executed instruction
system.cpu0.op_class::SimdMult                      0                       # Class of executed instruction
system.cpu0.op_class::SimdMultAcc                   0                       # Class of executed instruction
system.cpu0.op_class::SimdShift                     0                       # Class of executed instruction
system.cpu0.op_class::SimdShiftAcc                  0                       # Class of executed instruction
system.cpu0.op_class::SimdSqrt                      0                       # Class of executed instruction
system.cpu0.op_class::SimdFloatAdd                  0                       # Class of executed instruction
system.cpu0.op_class::SimdFloatAlu                  0                       # Class of executed instruction
system.cpu0.op_class::SimdFloatCmp                  0                       # Class of executed instruction
system.cpu0.op_class::SimdFloatCvt                  0                       # Class of executed instruction
system.cpu0.op_class::SimdFloatDiv                  0                       # Class of executed instruction
system.cpu0.op_class::SimdFloatMisc                 0                       # Class of executed instruction
system.cpu0.op_class::SimdFloatMult                 0                       # Class of executed instruction
system.cpu0.op_class::SimdFloatMultAcc              0                       # Class of executed instruction
system.cpu0.op_class::SimdFloatSqrt                 0                       # Class of executed instruction
system.cpu0.op_class::MemRead                       0                       # Class of executed instruction
system.cpu0.op_class::MemWrite                      0                       # Class of executed instruction
system.cpu0.op_class::FloatMemRead                  0                       # Class of executed instruction
system.cpu0.op_class::FloatMemWrite                 0                       # Class of executed instruction
system.cpu0.op_class::IprAccess                     0                       # Class of executed instruction
system.cpu0.op_class::InstPrefetch                  0                       # Class of executed instruction
system.cpu0.op_class::total                         0                       # Class of executed instruction
system.cpu0.dcache.tags.pwrStateResidencyTicks::UNDEFINED 4808269263500                       # Cumulative time (in ticks) in various power states
system.cpu0.dcache.tags.replacements             4294                       # number of replacements
system.cpu0.dcache.tags.tagsinuse          899.408148                       # Cycle average of tags in use
system.cpu0.dcache.tags.total_refs             117300                       # Total number of references to valid blocks.
system.cpu0.dcache.tags.sampled_refs             4294                       # Sample count of references to valid blocks.
system.cpu0.dcache.tags.avg_refs            27.317187                       # Average number of references to valid blocks.
system.cpu0.dcache.tags.warmup_cycle                0                       # Cycle when the warmup percentage was hit.
system.cpu0.dcache.tags.occ_blocks::switch_cpus0.data   122.084059                       # Average occupied blocks per requestor
system.cpu0.dcache.tags.occ_blocks::switch_cpus_10.data   777.324088                       # Average occupied blocks per requestor
system.cpu0.dcache.tags.occ_percent::switch_cpus0.data     0.119223                       # Average percentage of cache occupancy
system.cpu0.dcache.tags.occ_percent::switch_cpus_10.data     0.759106                       # Average percentage of cache occupancy
system.cpu0.dcache.tags.occ_percent::total     0.878328                       # Average percentage of cache occupancy
system.cpu0.dcache.tags.occ_task_id_blocks::1024          774                       # Occupied blocks per task id
system.cpu0.dcache.tags.age_task_id_blocks_1024::0            7                       # Occupied blocks per task id
system.cpu0.dcache.tags.age_task_id_blocks_1024::3          759                       # Occupied blocks per task id
system.cpu0.dcache.tags.age_task_id_blocks_1024::4            8                       # Occupied blocks per task id
system.cpu0.dcache.tags.occ_task_id_percent::1024     0.755859                       # Percentage of cache occupancy per task id
system.cpu0.dcache.tags.tag_accesses           271529                       # Number of tag accesses
system.cpu0.dcache.tags.data_accesses          271529                       # Number of data accesses
system.cpu0.dcache.pwrStateResidencyTicks::UNDEFINED 4808269263500                       # Cumulative time (in ticks) in various power states
system.cpu0.dcache.ReadReq_hits::switch_cpus0.data         5734                       # number of ReadReq hits
system.cpu0.dcache.ReadReq_hits::switch_cpus_10.data        65322                       # number of ReadReq hits
system.cpu0.dcache.ReadReq_hits::total          71056                       # number of ReadReq hits
system.cpu0.dcache.WriteReq_hits::switch_cpus0.data         3160                       # number of WriteReq hits
system.cpu0.dcache.WriteReq_hits::switch_cpus_10.data        53791                       # number of WriteReq hits
system.cpu0.dcache.WriteReq_hits::total         56951                       # number of WriteReq hits
system.cpu0.dcache.SoftPFReq_hits::switch_cpus0.data            6                       # number of SoftPFReq hits
system.cpu0.dcache.SoftPFReq_hits::switch_cpus_10.data          126                       # number of SoftPFReq hits
system.cpu0.dcache.SoftPFReq_hits::total          132                       # number of SoftPFReq hits
system.cpu0.dcache.demand_hits::switch_cpus0.data         8894                       # number of demand (read+write) hits
system.cpu0.dcache.demand_hits::switch_cpus_10.data       119113                       # number of demand (read+write) hits
system.cpu0.dcache.demand_hits::total          128007                       # number of demand (read+write) hits
system.cpu0.dcache.overall_hits::switch_cpus0.data         8900                       # number of overall hits
system.cpu0.dcache.overall_hits::switch_cpus_10.data       119239                       # number of overall hits
system.cpu0.dcache.overall_hits::total         128139                       # number of overall hits
system.cpu0.dcache.ReadReq_misses::switch_cpus0.data           94                       # number of ReadReq misses
system.cpu0.dcache.ReadReq_misses::switch_cpus_10.data         2368                       # number of ReadReq misses
system.cpu0.dcache.ReadReq_misses::total         2462                       # number of ReadReq misses
system.cpu0.dcache.WriteReq_misses::switch_cpus0.data           59                       # number of WriteReq misses
system.cpu0.dcache.WriteReq_misses::switch_cpus_10.data         2322                       # number of WriteReq misses
system.cpu0.dcache.WriteReq_misses::total         2381                       # number of WriteReq misses
system.cpu0.dcache.SoftPFReq_misses::switch_cpus_10.data          410                       # number of SoftPFReq misses
system.cpu0.dcache.SoftPFReq_misses::total          410                       # number of SoftPFReq misses
system.cpu0.dcache.demand_misses::switch_cpus0.data          153                       # number of demand (read+write) misses
system.cpu0.dcache.demand_misses::switch_cpus_10.data         4690                       # number of demand (read+write) misses
system.cpu0.dcache.demand_misses::total          4843                       # number of demand (read+write) misses
system.cpu0.dcache.overall_misses::switch_cpus0.data          153                       # number of overall misses
system.cpu0.dcache.overall_misses::switch_cpus_10.data         5100                       # number of overall misses
system.cpu0.dcache.overall_misses::total         5253                       # number of overall misses
system.cpu0.dcache.ReadReq_miss_latency::switch_cpus_10.data     33403500                       # number of ReadReq miss cycles
system.cpu0.dcache.ReadReq_miss_latency::total     33403500                       # number of ReadReq miss cycles
system.cpu0.dcache.WriteReq_miss_latency::switch_cpus_10.data     38190500                       # number of WriteReq miss cycles
system.cpu0.dcache.WriteReq_miss_latency::total     38190500                       # number of WriteReq miss cycles
system.cpu0.dcache.demand_miss_latency::switch_cpus_10.data     71594000                       # number of demand (read+write) miss cycles
system.cpu0.dcache.demand_miss_latency::total     71594000                       # number of demand (read+write) miss cycles
system.cpu0.dcache.overall_miss_latency::switch_cpus_10.data     71594000                       # number of overall miss cycles
system.cpu0.dcache.overall_miss_latency::total     71594000                       # number of overall miss cycles
system.cpu0.dcache.ReadReq_accesses::switch_cpus0.data         5828                       # number of ReadReq accesses(hits+misses)
system.cpu0.dcache.ReadReq_accesses::switch_cpus_10.data        67690                       # number of ReadReq accesses(hits+misses)
system.cpu0.dcache.ReadReq_accesses::total        73518                       # number of ReadReq accesses(hits+misses)
system.cpu0.dcache.WriteReq_accesses::switch_cpus0.data         3219                       # number of WriteReq accesses(hits+misses)
system.cpu0.dcache.WriteReq_accesses::switch_cpus_10.data        56113                       # number of WriteReq accesses(hits+misses)
system.cpu0.dcache.WriteReq_accesses::total        59332                       # number of WriteReq accesses(hits+misses)
system.cpu0.dcache.SoftPFReq_accesses::switch_cpus0.data            6                       # number of SoftPFReq accesses(hits+misses)
system.cpu0.dcache.SoftPFReq_accesses::switch_cpus_10.data          536                       # number of SoftPFReq accesses(hits+misses)
system.cpu0.dcache.SoftPFReq_accesses::total          542                       # number of SoftPFReq accesses(hits+misses)
system.cpu0.dcache.demand_accesses::switch_cpus0.data         9047                       # number of demand (read+write) accesses
system.cpu0.dcache.demand_accesses::switch_cpus_10.data       123803                       # number of demand (read+write) accesses
system.cpu0.dcache.demand_accesses::total       132850                       # number of demand (read+write) accesses
system.cpu0.dcache.overall_accesses::switch_cpus0.data         9053                       # number of overall (read+write) accesses
system.cpu0.dcache.overall_accesses::switch_cpus_10.data       124339                       # number of overall (read+write) accesses
system.cpu0.dcache.overall_accesses::total       133392                       # number of overall (read+write) accesses
system.cpu0.dcache.ReadReq_miss_rate::switch_cpus0.data     0.016129                       # miss rate for ReadReq accesses
system.cpu0.dcache.ReadReq_miss_rate::switch_cpus_10.data     0.034983                       # miss rate for ReadReq accesses
system.cpu0.dcache.ReadReq_miss_rate::total     0.033488                       # miss rate for ReadReq accesses
system.cpu0.dcache.WriteReq_miss_rate::switch_cpus0.data     0.018329                       # miss rate for WriteReq accesses
system.cpu0.dcache.WriteReq_miss_rate::switch_cpus_10.data     0.041381                       # miss rate for WriteReq accesses
system.cpu0.dcache.WriteReq_miss_rate::total     0.040130                       # miss rate for WriteReq accesses
system.cpu0.dcache.SoftPFReq_miss_rate::switch_cpus_10.data     0.764925                       # miss rate for SoftPFReq accesses
system.cpu0.dcache.SoftPFReq_miss_rate::total     0.756458                       # miss rate for SoftPFReq accesses
system.cpu0.dcache.demand_miss_rate::switch_cpus0.data     0.016912                       # miss rate for demand accesses
system.cpu0.dcache.demand_miss_rate::switch_cpus_10.data     0.037883                       # miss rate for demand accesses
system.cpu0.dcache.demand_miss_rate::total     0.036455                       # miss rate for demand accesses
system.cpu0.dcache.overall_miss_rate::switch_cpus0.data     0.016900                       # miss rate for overall accesses
system.cpu0.dcache.overall_miss_rate::switch_cpus_10.data     0.041017                       # miss rate for overall accesses
system.cpu0.dcache.overall_miss_rate::total     0.039380                       # miss rate for overall accesses
system.cpu0.dcache.ReadReq_avg_miss_latency::switch_cpus_10.data 14106.207770                       # average ReadReq miss latency
system.cpu0.dcache.ReadReq_avg_miss_latency::total 13567.627945                       # average ReadReq miss latency
system.cpu0.dcache.WriteReq_avg_miss_latency::switch_cpus_10.data 16447.243755                       # average WriteReq miss latency
system.cpu0.dcache.WriteReq_avg_miss_latency::total 16039.689206                       # average WriteReq miss latency
system.cpu0.dcache.demand_avg_miss_latency::switch_cpus_10.data 15265.245203                       # average overall miss latency
system.cpu0.dcache.demand_avg_miss_latency::total 14782.985753                       # average overall miss latency
system.cpu0.dcache.overall_avg_miss_latency::switch_cpus_10.data 14038.039216                       # average overall miss latency
system.cpu0.dcache.overall_avg_miss_latency::total 13629.164287                       # average overall miss latency
system.cpu0.dcache.blocked_cycles::no_mshrs            0                       # number of cycles access was blocked
system.cpu0.dcache.blocked_cycles::no_targets            0                       # number of cycles access was blocked
system.cpu0.dcache.blocked::no_mshrs                0                       # number of cycles access was blocked
system.cpu0.dcache.blocked::no_targets              0                       # number of cycles access was blocked
system.cpu0.dcache.avg_blocked_cycles::no_mshrs          nan                       # average number of cycles each access was blocked
system.cpu0.dcache.avg_blocked_cycles::no_targets          nan                       # average number of cycles each access was blocked
system.cpu0.dcache.writebacks::writebacks         3001                       # number of writebacks
system.cpu0.dcache.writebacks::total             3001                       # number of writebacks
system.cpu0.dcache.WriteReq_mshr_hits::switch_cpus_10.data            4                       # number of WriteReq MSHR hits
system.cpu0.dcache.WriteReq_mshr_hits::total            4                       # number of WriteReq MSHR hits
system.cpu0.dcache.demand_mshr_hits::switch_cpus_10.data            4                       # number of demand (read+write) MSHR hits
system.cpu0.dcache.demand_mshr_hits::total            4                       # number of demand (read+write) MSHR hits
system.cpu0.dcache.overall_mshr_hits::switch_cpus_10.data            4                       # number of overall MSHR hits
system.cpu0.dcache.overall_mshr_hits::total            4                       # number of overall MSHR hits
system.cpu0.dcache.ReadReq_mshr_misses::switch_cpus_10.data         2368                       # number of ReadReq MSHR misses
system.cpu0.dcache.ReadReq_mshr_misses::total         2368                       # number of ReadReq MSHR misses
system.cpu0.dcache.WriteReq_mshr_misses::switch_cpus_10.data         2318                       # number of WriteReq MSHR misses
system.cpu0.dcache.WriteReq_mshr_misses::total         2318                       # number of WriteReq MSHR misses
system.cpu0.dcache.SoftPFReq_mshr_misses::switch_cpus_10.data          410                       # number of SoftPFReq MSHR misses
system.cpu0.dcache.SoftPFReq_mshr_misses::total          410                       # number of SoftPFReq MSHR misses
system.cpu0.dcache.demand_mshr_misses::switch_cpus_10.data         4686                       # number of demand (read+write) MSHR misses
system.cpu0.dcache.demand_mshr_misses::total         4686                       # number of demand (read+write) MSHR misses
system.cpu0.dcache.overall_mshr_misses::switch_cpus_10.data         5096                       # number of overall MSHR misses
system.cpu0.dcache.overall_mshr_misses::total         5096                       # number of overall MSHR misses
system.cpu0.dcache.ReadReq_mshr_uncacheable::switch_cpus_10.data           27                       # number of ReadReq MSHR uncacheable
system.cpu0.dcache.ReadReq_mshr_uncacheable::total           27                       # number of ReadReq MSHR uncacheable
system.cpu0.dcache.WriteReq_mshr_uncacheable::switch_cpus_10.data           46                       # number of WriteReq MSHR uncacheable
system.cpu0.dcache.WriteReq_mshr_uncacheable::total           46                       # number of WriteReq MSHR uncacheable
system.cpu0.dcache.overall_mshr_uncacheable_misses::switch_cpus_10.data           73                       # number of overall MSHR uncacheable misses
system.cpu0.dcache.overall_mshr_uncacheable_misses::total           73                       # number of overall MSHR uncacheable misses
system.cpu0.dcache.ReadReq_mshr_miss_latency::switch_cpus_10.data     31035500                       # number of ReadReq MSHR miss cycles
system.cpu0.dcache.ReadReq_mshr_miss_latency::total     31035500                       # number of ReadReq MSHR miss cycles
system.cpu0.dcache.WriteReq_mshr_miss_latency::switch_cpus_10.data     35285000                       # number of WriteReq MSHR miss cycles
system.cpu0.dcache.WriteReq_mshr_miss_latency::total     35285000                       # number of WriteReq MSHR miss cycles
system.cpu0.dcache.SoftPFReq_mshr_miss_latency::switch_cpus_10.data      4008500                       # number of SoftPFReq MSHR miss cycles
system.cpu0.dcache.SoftPFReq_mshr_miss_latency::total      4008500                       # number of SoftPFReq MSHR miss cycles
system.cpu0.dcache.demand_mshr_miss_latency::switch_cpus_10.data     66320500                       # number of demand (read+write) MSHR miss cycles
system.cpu0.dcache.demand_mshr_miss_latency::total     66320500                       # number of demand (read+write) MSHR miss cycles
system.cpu0.dcache.overall_mshr_miss_latency::switch_cpus_10.data     70329000                       # number of overall MSHR miss cycles
system.cpu0.dcache.overall_mshr_miss_latency::total     70329000                       # number of overall MSHR miss cycles
system.cpu0.dcache.ReadReq_mshr_uncacheable_latency::switch_cpus_10.data      4680500                       # number of ReadReq MSHR uncacheable cycles
system.cpu0.dcache.ReadReq_mshr_uncacheable_latency::total      4680500                       # number of ReadReq MSHR uncacheable cycles
system.cpu0.dcache.overall_mshr_uncacheable_latency::switch_cpus_10.data      4680500                       # number of overall MSHR uncacheable cycles
system.cpu0.dcache.overall_mshr_uncacheable_latency::total      4680500                       # number of overall MSHR uncacheable cycles
system.cpu0.dcache.ReadReq_mshr_miss_rate::switch_cpus_10.data     0.034983                       # mshr miss rate for ReadReq accesses
system.cpu0.dcache.ReadReq_mshr_miss_rate::total     0.032210                       # mshr miss rate for ReadReq accesses
system.cpu0.dcache.WriteReq_mshr_miss_rate::switch_cpus_10.data     0.041310                       # mshr miss rate for WriteReq accesses
system.cpu0.dcache.WriteReq_mshr_miss_rate::total     0.039068                       # mshr miss rate for WriteReq accesses
system.cpu0.dcache.SoftPFReq_mshr_miss_rate::switch_cpus_10.data     0.764925                       # mshr miss rate for SoftPFReq accesses
system.cpu0.dcache.SoftPFReq_mshr_miss_rate::total     0.756458                       # mshr miss rate for SoftPFReq accesses
system.cpu0.dcache.demand_mshr_miss_rate::switch_cpus_10.data     0.037850                       # mshr miss rate for demand accesses
system.cpu0.dcache.demand_mshr_miss_rate::total     0.035273                       # mshr miss rate for demand accesses
system.cpu0.dcache.overall_mshr_miss_rate::switch_cpus_10.data     0.040985                       # mshr miss rate for overall accesses
system.cpu0.dcache.overall_mshr_miss_rate::total     0.038203                       # mshr miss rate for overall accesses
system.cpu0.dcache.ReadReq_avg_mshr_miss_latency::switch_cpus_10.data 13106.207770                       # average ReadReq mshr miss latency
system.cpu0.dcache.ReadReq_avg_mshr_miss_latency::total 13106.207770                       # average ReadReq mshr miss latency
system.cpu0.dcache.WriteReq_avg_mshr_miss_latency::switch_cpus_10.data 15222.174288                       # average WriteReq mshr miss latency
system.cpu0.dcache.WriteReq_avg_mshr_miss_latency::total 15222.174288                       # average WriteReq mshr miss latency
system.cpu0.dcache.SoftPFReq_avg_mshr_miss_latency::switch_cpus_10.data  9776.829268                       # average SoftPFReq mshr miss latency
system.cpu0.dcache.SoftPFReq_avg_mshr_miss_latency::total  9776.829268                       # average SoftPFReq mshr miss latency
[...]
system.tol2bus.trans_dist::WriteReq              3466                       # Transaction distribution
system.tol2bus.trans_dist::WriteResp             3468                       # Transaction distribution
system.tol2bus.trans_dist::WritebackDirty        53170                       # Transaction distribution
system.tol2bus.trans_dist::WritebackClean        80015                       # Transaction distribution
system.tol2bus.trans_dist::CleanEvict           80034                       # Transaction distribution
system.tol2bus.trans_dist::HardPFReq            14098                       # Transaction distribution
system.tol2bus.trans_dist::UpgradeReq           22030                       # Transaction distribution
system.tol2bus.trans_dist::UpgradeResp          22030                       # Transaction distribution
system.tol2bus.trans_dist::ReadExReq            12693                       # Transaction distribution
system.tol2bus.trans_dist::ReadExResp           12693                       # Transaction distribution
system.tol2bus.trans_dist::ReadCleanReq         80015                       # Transaction distribution
system.tol2bus.trans_dist::ReadSharedReq       159212                       # Transaction distribution
system.tol2bus.pkt_count_system.cpu0.icache.mem_side::system.l2.cpu_side        44958                       # Packet count per connected master and slave (bytes)
system.tol2bus.pkt_count_system.cpu0.dcache.mem_side::system.l2.cpu_side        55078                       # Packet count per connected master and slave (bytes)
system.tol2bus.pkt_count_system.cpu0.dtb_walker_cache.mem_side::system.l2.cpu_side           48                       # Packet count per connected master and slave (bytes)
system.tol2bus.pkt_count_system.cpu1.icache.mem_side::system.l2.cpu_side        27216                       # Packet count per connected master and slave (bytes)
system.tol2bus.pkt_count_system.cpu1.dcache.mem_side::system.l2.cpu_side        45228                       # Packet count per connected master and slave (bytes)
system.tol2bus.pkt_count_system.cpu1.dtb_walker_cache.mem_side::system.l2.cpu_side           21                       # Packet count per connected master and slave (bytes)
system.tol2bus.pkt_count_system.cpu2.icache.mem_side::system.l2.cpu_side        29727                       # Packet count per connected master and slave (bytes)
system.tol2bus.pkt_count_system.cpu2.dcache.mem_side::system.l2.cpu_side        51223                       # Packet count per connected master and slave (bytes)
system.tol2bus.pkt_count_system.cpu2.dtb_walker_cache.mem_side::system.l2.cpu_side           52                       # Packet count per connected master and slave (bytes)
system.tol2bus.pkt_count_system.cpu3.icache.mem_side::system.l2.cpu_side        29184                       # Packet count per connected master and slave (bytes)
system.tol2bus.pkt_count_system.cpu3.dcache.mem_side::system.l2.cpu_side        52264                       # Packet count per connected master and slave (bytes)
system.tol2bus.pkt_count_system.cpu3.dtb_walker_cache.mem_side::system.l2.cpu_side           15                       # Packet count per connected master and slave (bytes)
system.tol2bus.pkt_count_system.cpu4.icache.mem_side::system.l2.cpu_side        28809                       # Packet count per connected master and slave (bytes)
system.tol2bus.pkt_count_system.cpu4.dcache.mem_side::system.l2.cpu_side        50165                       # Packet count per connected master and slave (bytes)
system.tol2bus.pkt_count_system.cpu4.dtb_walker_cache.mem_side::system.l2.cpu_side           13                       # Packet count per connected master and slave (bytes)
system.tol2bus.pkt_count_system.cpu5.icache.mem_side::system.l2.cpu_side        22206                       # Packet count per connected master and slave (bytes)
system.tol2bus.pkt_count_system.cpu5.dcache.mem_side::system.l2.cpu_side        51207                       # Packet count per connected master and slave (bytes)
system.tol2bus.pkt_count_system.cpu5.itb_walker_cache.mem_side::system.l2.cpu_side           68                       # Packet count per connected master and slave (bytes)
system.tol2bus.pkt_count_system.cpu5.dtb_walker_cache.mem_side::system.l2.cpu_side          608                       # Packet count per connected master and slave (bytes)
system.tol2bus.pkt_count_system.cpu6.icache.mem_side::system.l2.cpu_side        29430                       # Packet count per connected master and slave (bytes)
system.tol2bus.pkt_count_system.cpu6.dcache.mem_side::system.l2.cpu_side        47810                       # Packet count per connected master and slave (bytes)
system.tol2bus.pkt_count_system.cpu6.dtb_walker_cache.mem_side::system.l2.cpu_side           17                       # Packet count per connected master and slave (bytes)
system.tol2bus.pkt_count_system.cpu7.icache.mem_side::system.l2.cpu_side        28515                       # Packet count per connected master and slave (bytes)
system.tol2bus.pkt_count_system.cpu7.dcache.mem_side::system.l2.cpu_side        48233                       # Packet count per connected master and slave (bytes)
system.tol2bus.pkt_count_system.cpu7.dtb_walker_cache.mem_side::system.l2.cpu_side           18                       # Packet count per connected master and slave (bytes)
system.tol2bus.pkt_count::total                642113                       # Packet count per connected master and slave (bytes)
system.tol2bus.pkt_size_system.cpu0.icache.mem_side::system.l2.cpu_side      1918208                       # Cumulative packet size per connected master and slave (bytes)
system.tol2bus.pkt_size_system.cpu0.dcache.mem_side::system.l2.cpu_side       957048                       # Cumulative packet size per connected master and slave (bytes)
system.tol2bus.pkt_size_system.cpu0.dtb_walker_cache.mem_side::system.l2.cpu_side          896                       # Cumulative packet size per connected master and slave (bytes)
system.tol2bus.pkt_size_system.cpu1.icache.mem_side::system.l2.cpu_side      1161216                       # Cumulative packet size per connected master and slave (bytes)
system.tol2bus.pkt_size_system.cpu1.dcache.mem_side::system.l2.cpu_side       763538                       # Cumulative packet size per connected master and slave (bytes)
system.tol2bus.pkt_size_system.cpu1.dtb_walker_cache.mem_side::system.l2.cpu_side          512                       # Cumulative packet size per connected master and slave (bytes)
system.tol2bus.pkt_size_system.cpu2.icache.mem_side::system.l2.cpu_side      1268352                       # Cumulative packet size per connected master and slave (bytes)
system.tol2bus.pkt_size_system.cpu2.dcache.mem_side::system.l2.cpu_side       870034                       # Cumulative packet size per connected master and slave (bytes)
system.tol2bus.pkt_size_system.cpu2.dtb_walker_cache.mem_side::system.l2.cpu_side         1088                       # Cumulative packet size per connected master and slave (bytes)
system.tol2bus.pkt_size_system.cpu3.icache.mem_side::system.l2.cpu_side      1245184                       # Cumulative packet size per connected master and slave (bytes)
system.tol2bus.pkt_size_system.cpu3.dcache.mem_side::system.l2.cpu_side       881490                       # Cumulative packet size per connected master and slave (bytes)
system.tol2bus.pkt_size_system.cpu3.dtb_walker_cache.mem_side::system.l2.cpu_side          320                       # Cumulative packet size per connected master and slave (bytes)
system.tol2bus.pkt_size_system.cpu4.icache.mem_side::system.l2.cpu_side      1229184                       # Cumulative packet size per connected master and slave (bytes)
system.tol2bus.pkt_size_system.cpu4.dcache.mem_side::system.l2.cpu_side       843086                       # Cumulative packet size per connected master and slave (bytes)
system.tol2bus.pkt_size_system.cpu4.dtb_walker_cache.mem_side::system.l2.cpu_side          192                       # Cumulative packet size per connected master and slave (bytes)
system.tol2bus.pkt_size_system.cpu5.icache.mem_side::system.l2.cpu_side       947456                       # Cumulative packet size per connected master and slave (bytes)
system.tol2bus.pkt_size_system.cpu5.dcache.mem_side::system.l2.cpu_side      1451006                       # Cumulative packet size per connected master and slave (bytes)
system.tol2bus.pkt_size_system.cpu5.itb_walker_cache.mem_side::system.l2.cpu_side         1472                       # Cumulative packet size per connected master and slave (bytes)
system.tol2bus.pkt_size_system.cpu5.dtb_walker_cache.mem_side::system.l2.cpu_side        11840                       # Cumulative packet size per connected master and slave (bytes)
system.tol2bus.pkt_size_system.cpu6.icache.mem_side::system.l2.cpu_side      1255680                       # Cumulative packet size per connected master and slave (bytes)
system.tol2bus.pkt_size_system.cpu6.dcache.mem_side::system.l2.cpu_side       792301                       # Cumulative packet size per connected master and slave (bytes)
system.tol2bus.pkt_size_system.cpu6.dtb_walker_cache.mem_side::system.l2.cpu_side          384                       # Cumulative packet size per connected master and slave (bytes)
system.tol2bus.pkt_size_system.cpu7.icache.mem_side::system.l2.cpu_side      1216640                       # Cumulative packet size per connected master and slave (bytes)
system.tol2bus.pkt_size_system.cpu7.dcache.mem_side::system.l2.cpu_side       797128                       # Cumulative packet size per connected master and slave (bytes)
system.tol2bus.pkt_size_system.cpu7.dtb_walker_cache.mem_side::system.l2.cpu_side          448                       # Cumulative packet size per connected master and slave (bytes)
system.tol2bus.pkt_size::total               17614703                       # Cumulative packet size per connected master and slave (bytes)
system.tol2bus.snoops                          140293                       # Total snoops (count)
system.tol2bus.snoopTraffic                   7047680                       # Total snoop traffic (bytes)
system.tol2bus.snoop_fanout::samples           307938                       # Request fanout histogram
system.tol2bus.snoop_fanout::mean            2.551747                       # Request fanout histogram
system.tol2bus.snoop_fanout::stdev           2.787474                       # Request fanout histogram
system.tol2bus.snoop_fanout::underflows             0      0.00%      0.00% # Request fanout histogram
system.tol2bus.snoop_fanout::0                  92713     30.11%     30.11% # Request fanout histogram
system.tol2bus.snoop_fanout::1                  83609     27.15%     57.26% # Request fanout histogram
system.tol2bus.snoop_fanout::2                  31418     10.20%     67.46% # Request fanout histogram
system.tol2bus.snoop_fanout::3                   3820      1.24%     68.70% # Request fanout histogram
system.tol2bus.snoop_fanout::4                   3936      1.28%     69.98% # Request fanout histogram
system.tol2bus.snoop_fanout::5                   4859      1.58%     71.56% # Request fanout histogram
system.tol2bus.snoop_fanout::6                  25849      8.39%     79.95% # Request fanout histogram
system.tol2bus.snoop_fanout::7                  61649     20.02%     99.97% # Request fanout histogram
system.tol2bus.snoop_fanout::8                      4      0.00%     99.97% # Request fanout histogram
system.tol2bus.snoop_fanout::9                      9      0.00%     99.98% # Request fanout histogram
system.tol2bus.snoop_fanout::10                    13      0.00%     99.98% # Request fanout histogram
system.tol2bus.snoop_fanout::11                     3      0.00%     99.98% # Request fanout histogram
system.tol2bus.snoop_fanout::12                     5      0.00%     99.98% # Request fanout histogram
system.tol2bus.snoop_fanout::13                     5      0.00%     99.99% # Request fanout histogram
system.tol2bus.snoop_fanout::14                     7      0.00%     99.99% # Request fanout histogram
system.tol2bus.snoop_fanout::15                    11      0.00%     99.99% # Request fanout histogram
system.tol2bus.snoop_fanout::16                     0      0.00%     99.99% # Request fanout histogram
system.tol2bus.snoop_fanout::17                     1      0.00%     99.99% # Request fanout histogram
system.tol2bus.snoop_fanout::18                     9      0.00%     99.99% # Request fanout histogram
system.tol2bus.snoop_fanout::19                     4      0.00%    100.00% # Request fanout histogram
system.tol2bus.snoop_fanout::20                    14      0.00%    100.00% # Request fanout histogram
system.tol2bus.snoop_fanout::21                     0      0.00%    100.00% # Request fanout histogram
system.tol2bus.snoop_fanout::22                     0      0.00%    100.00% # Request fanout histogram
system.tol2bus.snoop_fanout::23                     0      0.00%    100.00% # Request fanout histogram
system.tol2bus.snoop_fanout::24                     0      0.00%    100.00% # Request fanout histogram
system.tol2bus.snoop_fanout::25                     0      0.00%    100.00% # Request fanout histogram
system.tol2bus.snoop_fanout::26                     0      0.00%    100.00% # Request fanout histogram
system.tol2bus.snoop_fanout::27                     0      0.00%    100.00% # Request fanout histogram
system.tol2bus.snoop_fanout::28                     0      0.00%    100.00% # Request fanout histogram
system.tol2bus.snoop_fanout::29                     0      0.00%    100.00% # Request fanout histogram
system.tol2bus.snoop_fanout::30                     0      0.00%    100.00% # Request fanout histogram
system.tol2bus.snoop_fanout::31                     0      0.00%    100.00% # Request fanout histogram
system.tol2bus.snoop_fanout::32                     0      0.00%    100.00% # Request fanout histogram
system.tol2bus.snoop_fanout::overflows              0      0.00%    100.00% # Request fanout histogram
system.tol2bus.snoop_fanout::min_value              0                       # Request fanout histogram
system.tol2bus.snoop_fanout::max_value             20                       # Request fanout histogram
system.tol2bus.snoop_fanout::total             307938                       # Request fanout histogram
system.tol2bus.reqLayer0.occupancy          361646000                       # Layer occupancy (ticks)
system.tol2bus.reqLayer0.utilization              0.0                       # Layer utilization (%)
system.tol2bus.snoopLayer0.occupancy            50994                       # Layer occupancy (ticks)
system.tol2bus.snoopLayer0.utilization            0.0                       # Layer utilization (%)
system.tol2bus.respLayer0.occupancy          22479996                       # Layer occupancy (ticks)
system.tol2bus.respLayer0.utilization             0.0                       # Layer utilization (%)
system.tol2bus.respLayer1.occupancy          34219000                       # Layer occupancy (ticks)
system.tol2bus.respLayer1.utilization             0.0                       # Layer utilization (%)
system.tol2bus.respLayer3.occupancy             27000                       # Layer occupancy (ticks)
system.tol2bus.respLayer3.utilization             0.0                       # Layer utilization (%)
system.tol2bus.respLayer4.occupancy          13610481                       # Layer occupancy (ticks)
system.tol2bus.respLayer4.utilization             0.0                       # Layer utilization (%)
system.tol2bus.respLayer5.occupancy          31615500                       # Layer occupancy (ticks)
system.tol2bus.respLayer5.utilization             0.0                       # Layer utilization (%)
system.tol2bus.respLayer7.occupancy             13500                       # Layer occupancy (ticks)
system.tol2bus.respLayer7.utilization             0.0                       # Layer utilization (%)
system.tol2bus.respLayer8.occupancy          14866978                       # Layer occupancy (ticks)
system.tol2bus.respLayer8.utilization             0.0                       # Layer utilization (%)
system.tol2bus.respLayer9.occupancy          35851998                       # Layer occupancy (ticks)
system.tol2bus.respLayer9.utilization             0.0                       # Layer utilization (%)
system.tol2bus.respLayer11.occupancy            27000                       # Layer occupancy (ticks)
system.tol2bus.respLayer11.utilization            0.0                       # Layer utilization (%)
system.tol2bus.respLayer12.occupancy         14595471                       # Layer occupancy (ticks)
system.tol2bus.respLayer12.utilization            0.0                       # Layer utilization (%)
system.tol2bus.respLayer13.occupancy         36412999                       # Layer occupancy (ticks)
system.tol2bus.respLayer13.utilization            0.0                       # Layer utilization (%)
system.tol2bus.respLayer15.occupancy             9000                       # Layer occupancy (ticks)
system.tol2bus.respLayer15.utilization            0.0                       # Layer utilization (%)
system.tol2bus.respLayer16.occupancy         14407976                       # Layer occupancy (ticks)
system.tol2bus.respLayer16.utilization            0.0                       # Layer utilization (%)
system.tol2bus.respLayer17.occupancy         35224997                       # Layer occupancy (ticks)
system.tol2bus.respLayer17.utilization            0.0                       # Layer utilization (%)
system.tol2bus.respLayer19.occupancy             7500                       # Layer occupancy (ticks)
system.tol2bus.respLayer19.utilization            0.0                       # Layer utilization (%)
system.tol2bus.respLayer20.occupancy         11103998                       # Layer occupancy (ticks)
system.tol2bus.respLayer20.utilization            0.0                       # Layer utilization (%)
system.tol2bus.respLayer21.occupancy         29261980                       # Layer occupancy (ticks)
system.tol2bus.respLayer21.utilization            0.0                       # Layer utilization (%)
system.tol2bus.respLayer22.occupancy            39000                       # Layer occupancy (ticks)
system.tol2bus.respLayer22.utilization            0.0                       # Layer utilization (%)
system.tol2bus.respLayer23.occupancy           403500                       # Layer occupancy (ticks)
system.tol2bus.respLayer23.utilization            0.0                       # Layer utilization (%)
system.tol2bus.respLayer24.occupancy         14719472                       # Layer occupancy (ticks)
system.tol2bus.respLayer24.utilization            0.0                       # Layer utilization (%)
system.tol2bus.respLayer25.occupancy         33550000                       # Layer occupancy (ticks)
system.tol2bus.respLayer25.utilization            0.0                       # Layer utilization (%)
system.tol2bus.respLayer27.occupancy             9000                       # Layer occupancy (ticks)
system.tol2bus.respLayer27.utilization            0.0                       # Layer utilization (%)
system.tol2bus.respLayer28.occupancy         14260977                       # Layer occupancy (ticks)
system.tol2bus.respLayer28.utilization            0.0                       # Layer utilization (%)
system.tol2bus.respLayer29.occupancy         34000498                       # Layer occupancy (ticks)
system.tol2bus.respLayer29.utilization            0.0                       # Layer utilization (%)
system.tol2bus.respLayer31.occupancy             9000                       # Layer occupancy (ticks)
system.tol2bus.respLayer31.utilization            0.0                       # Layer utilization (%)

---------- End Simulation Statistics   ----------
