
---------- Begin Simulation Statistics ----------
sim_seconds                                  1.671543                       # Number of seconds simulated
sim_ticks                                1671542896000                       # Number of ticks simulated
final_tick                               6471716611500                       # Number of ticks from beginning of simulation (restored from checkpoints and never reset)
sim_freq                                 1000000000000                       # Frequency of simulated ticks
host_inst_rate                                1345967                       # Simulator instruction rate (inst/s)
host_op_rate                                  3061850                       # Simulator op (including micro ops) rate (op/s)
host_tick_rate                             1492326461                       # Simulator tick rate (ticks/s)
host_mem_usage                                2330956                       # Number of bytes of host memory used
host_seconds                                  1120.09                       # Real time elapsed on the host
sim_insts                                  1507607324                       # Number of instructions simulated
sim_ops                                    3429553617                       # Number of ops (including micro ops) simulated
system.voltage_domain.voltage                       1                       # Voltage in Volts
system.clk_domain.clock                          1000                       # Clock period in ticks
system.mem_ctrls.pwrStateResidencyTicks::UNDEFINED 6471716611500                       # Cumulative time (in ticks) in various power states
system.mem_ctrls.bytes_read::switch_cpus0.inst           64                       # Number of bytes read from this memory
system.mem_ctrls.bytes_read::switch_cpus0.data           64                       # Number of bytes read from this memory
system.mem_ctrls.bytes_read::switch_cpus_10.inst         4096                       # Number of bytes read from this memory
system.mem_ctrls.bytes_read::switch_cpus_10.data        37568                       # Number of bytes read from this memory
system.mem_ctrls.bytes_read::switch_cpus_11.inst        15360                       # Number of bytes read from this memory
system.mem_ctrls.bytes_read::switch_cpus_11.data        62080                       # Number of bytes read from this memory
system.mem_ctrls.bytes_read::switch_cpus_12.inst         3136                       # Number of bytes read from this memory
system.mem_ctrls.bytes_read::switch_cpus_12.data        28416                       # Number of bytes read from this memory
system.mem_ctrls.bytes_read::switch_cpus_13.dtb.walker           64                       # Number of bytes read from this memory
system.mem_ctrls.bytes_read::switch_cpus_13.inst         1536                       # Number of bytes read from this memory
system.mem_ctrls.bytes_read::switch_cpus_13.data        22208                       # Number of bytes read from this memory
system.mem_ctrls.bytes_read::switch_cpus_14.inst          768                       # Number of bytes read from this memory
system.mem_ctrls.bytes_read::switch_cpus_14.data        17600                       # Number of bytes read from this memory
system.mem_ctrls.bytes_read::switch_cpus_15.inst         1024                       # Number of bytes read from this memory
system.mem_ctrls.bytes_read::switch_cpus_15.data        19456                       # Number of bytes read from this memory
system.mem_ctrls.bytes_read::switch_cpus_16.inst         2176                       # Number of bytes read from this memory
system.mem_ctrls.bytes_read::switch_cpus_16.data        12864                       # Number of bytes read from this memory
system.mem_ctrls.bytes_read::switch_cpus_17.inst         2048                       # Number of bytes read from this memory
system.mem_ctrls.bytes_read::switch_cpus_17.data        41984                       # Number of bytes read from this memory
system.mem_ctrls.bytes_read::total             272512                       # Number of bytes read from this memory
system.mem_ctrls.bytes_inst_read::switch_cpus0.inst           64                       # Number of instructions bytes read from this memory
system.mem_ctrls.bytes_inst_read::switch_cpus_10.inst         4096                       # Number of instructions bytes read from this memory
system.mem_ctrls.bytes_inst_read::switch_cpus_11.inst        15360                       # Number of instructions bytes read from this memory
system.mem_ctrls.bytes_inst_read::switch_cpus_12.inst         3136                       # Number of instructions bytes read from this memory
system.mem_ctrls.bytes_inst_read::switch_cpus_13.inst         1536                       # Number of instructions bytes read from this memory
system.mem_ctrls.bytes_inst_read::switch_cpus_14.inst          768                       # Number of instructions bytes read from this memory
system.mem_ctrls.bytes_inst_read::switch_cpus_15.inst         1024                       # Number of instructions bytes read from this memory
system.mem_ctrls.bytes_inst_read::switch_cpus_16.inst         2176                       # Number of instructions bytes read from this memory
system.mem_ctrls.bytes_inst_read::switch_cpus_17.inst         2048                       # Number of instructions bytes read from this memory
system.mem_ctrls.bytes_inst_read::total         30208                       # Number of instructions bytes read from this memory
system.mem_ctrls.bytes_written::writebacks      1614912                       # Number of bytes written to this memory
system.mem_ctrls.bytes_written::total         1614912                       # Number of bytes written to this memory
system.mem_ctrls.num_reads::switch_cpus0.inst            1                       # Number of read requests responded to by this memory
system.mem_ctrls.num_reads::switch_cpus0.data            1                       # Number of read requests responded to by this memory
system.mem_ctrls.num_reads::switch_cpus_10.inst           64                       # Number of read requests responded to by this memory
system.mem_ctrls.num_reads::switch_cpus_10.data          587                       # Number of read requests responded to by this memory
system.mem_ctrls.num_reads::switch_cpus_11.inst          240                       # Number of read requests responded to by this memory
system.mem_ctrls.num_reads::switch_cpus_11.data          970                       # Number of read requests responded to by this memory
system.mem_ctrls.num_reads::switch_cpus_12.inst           49                       # Number of read requests responded to by this memory
system.mem_ctrls.num_reads::switch_cpus_12.data          444                       # Number of read requests responded to by this memory
system.mem_ctrls.num_reads::switch_cpus_13.dtb.walker            1                       # Number of read requests responded to by this memory
system.mem_ctrls.num_reads::switch_cpus_13.inst           24                       # Number of read requests responded to by this memory
system.mem_ctrls.num_reads::switch_cpus_13.data          347                       # Number of read requests responded to by this memory
system.mem_ctrls.num_reads::switch_cpus_14.inst           12                       # Number of read requests responded to by this memory
system.mem_ctrls.num_reads::switch_cpus_14.data          275                       # Number of read requests responded to by this memory
system.mem_ctrls.num_reads::switch_cpus_15.inst           16                       # Number of read requests responded to by this memory
system.mem_ctrls.num_reads::switch_cpus_15.data          304                       # Number of read requests responded to by this memory
system.mem_ctrls.num_reads::switch_cpus_16.inst           34                       # Number of read requests responded to by this memory
system.mem_ctrls.num_reads::switch_cpus_16.data          201                       # Number of read requests responded to by this memory
system.mem_ctrls.num_reads::switch_cpus_17.inst           32                       # Number of read requests responded to by this memory
system.mem_ctrls.num_reads::switch_cpus_17.data          656                       # Number of read requests responded to by this memory
system.mem_ctrls.num_reads::total                4258                       # Number of read requests responded to by this memory
system.mem_ctrls.num_writes::writebacks         25233                       # Number of write requests responded to by this memory
system.mem_ctrls.num_writes::total              25233                       # Number of write requests responded to by this memory
system.mem_ctrls.bw_read::switch_cpus0.inst           38                       # Total read bandwidth from this memory (bytes/s)
system.mem_ctrls.bw_read::switch_cpus0.data           38                       # Total read bandwidth from this memory (bytes/s)
system.mem_ctrls.bw_read::switch_cpus_10.inst         2450                       # Total read bandwidth from this memory (bytes/s)
system.mem_ctrls.bw_read::switch_cpus_10.data        22475                       # Total read bandwidth from this memory (bytes/s)
system.mem_ctrls.bw_read::switch_cpus_11.inst         9189                       # Total read bandwidth from this memory (bytes/s)
system.mem_ctrls.bw_read::switch_cpus_11.data        37139                       # Total read bandwidth from this memory (bytes/s)
system.mem_ctrls.bw_read::switch_cpus_12.inst         1876                       # Total read bandwidth from this memory (bytes/s)
system.mem_ctrls.bw_read::switch_cpus_12.data        17000                       # Total read bandwidth from this memory (bytes/s)
system.mem_ctrls.bw_read::switch_cpus_13.dtb.walker           38                       # Total read bandwidth from this memory (bytes/s)
system.mem_ctrls.bw_read::switch_cpus_13.inst          919                       # Total read bandwidth from this memory (bytes/s)
system.mem_ctrls.bw_read::switch_cpus_13.data        13286                       # Total read bandwidth from this memory (bytes/s)
system.mem_ctrls.bw_read::switch_cpus_14.inst          459                       # Total read bandwidth from this memory (bytes/s)
system.mem_ctrls.bw_read::switch_cpus_14.data        10529                       # Total read bandwidth from this memory (bytes/s)
system.mem_ctrls.bw_read::switch_cpus_15.inst          613                       # Total read bandwidth from this memory (bytes/s)
system.mem_ctrls.bw_read::switch_cpus_15.data        11640                       # Total read bandwidth from this memory (bytes/s)
system.mem_ctrls.bw_read::switch_cpus_16.inst         1302                       # Total read bandwidth from this memory (bytes/s)
system.mem_ctrls.bw_read::switch_cpus_16.data         7696                       # Total read bandwidth from this memory (bytes/s)
system.mem_ctrls.bw_read::switch_cpus_17.inst         1225                       # Total read bandwidth from this memory (bytes/s)
system.mem_ctrls.bw_read::switch_cpus_17.data        25117                       # Total read bandwidth from this memory (bytes/s)
system.mem_ctrls.bw_read::total                163030                       # Total read bandwidth from this memory (bytes/s)
system.mem_ctrls.bw_inst_read::switch_cpus0.inst           38                       # Instruction read bandwidth from this memory (bytes/s)
system.mem_ctrls.bw_inst_read::switch_cpus_10.inst         2450                       # Instruction read bandwidth from this memory (bytes/s)
system.mem_ctrls.bw_inst_read::switch_cpus_11.inst         9189                       # Instruction read bandwidth from this memory (bytes/s)
system.mem_ctrls.bw_inst_read::switch_cpus_12.inst         1876                       # Instruction read bandwidth from this memory (bytes/s)
system.mem_ctrls.bw_inst_read::switch_cpus_13.inst          919                       # Instruction read bandwidth from this memory (bytes/s)
system.mem_ctrls.bw_inst_read::switch_cpus_14.inst          459                       # Instruction read bandwidth from this memory (bytes/s)
system.mem_ctrls.bw_inst_read::switch_cpus_15.inst          613                       # Instruction read bandwidth from this memory (bytes/s)
system.mem_ctrls.bw_inst_read::switch_cpus_16.inst         1302                       # Instruction read bandwidth from this memory (bytes/s)
system.mem_ctrls.bw_inst_read::switch_cpus_17.inst         1225                       # Instruction read bandwidth from this memory (bytes/s)
system.mem_ctrls.bw_inst_read::total            18072                       # Instruction read bandwidth from this memory (bytes/s)
system.mem_ctrls.bw_write::writebacks          966121                       # Write bandwidth from this memory (bytes/s)
system.mem_ctrls.bw_write::total               966121                       # Write bandwidth from this memory (bytes/s)
system.mem_ctrls.bw_total::writebacks          966121                       # Total bandwidth to/from this memory (bytes/s)
system.mem_ctrls.bw_total::switch_cpus0.inst           38                       # Total bandwidth to/from this memory (bytes/s)
system.mem_ctrls.bw_total::switch_cpus0.data           38                       # Total bandwidth to/from this memory (bytes/s)
system.mem_ctrls.bw_total::switch_cpus_10.inst         2450                       # Total bandwidth to/from this memory (bytes/s)
system.mem_ctrls.bw_total::switch_cpus_10.data        22475                       # Total bandwidth to/from this memory (bytes/s)
system.mem_ctrls.bw_total::switch_cpus_11.inst         9189                       # Total bandwidth to/from this memory (bytes/s)
system.mem_ctrls.bw_total::switch_cpus_11.data        37139                       # Total bandwidth to/from this memory (bytes/s)
system.mem_ctrls.bw_total::switch_cpus_12.inst         1876                       # Total bandwidth to/from this memory (bytes/s)
system.mem_ctrls.bw_total::switch_cpus_12.data        17000                       # Total bandwidth to/from this memory (bytes/s)
system.mem_ctrls.bw_total::switch_cpus_13.dtb.walker           38                       # Total bandwidth to/from this memory (bytes/s)
system.mem_ctrls.bw_total::switch_cpus_13.inst          919                       # Total bandwidth to/from this memory (bytes/s)
system.mem_ctrls.bw_total::switch_cpus_13.data        13286                       # Total bandwidth to/from this memory (bytes/s)
system.mem_ctrls.bw_total::switch_cpus_14.inst          459                       # Total bandwidth to/from this memory (bytes/s)
system.mem_ctrls.bw_total::switch_cpus_14.data        10529                       # Total bandwidth to/from this memory (bytes/s)
system.mem_ctrls.bw_total::switch_cpus_15.inst          613                       # Total bandwidth to/from this memory (bytes/s)
system.mem_ctrls.bw_total::switch_cpus_15.data        11640                       # Total bandwidth to/from this memory (bytes/s)
system.mem_ctrls.bw_total::switch_cpus_16.inst         1302                       # Total bandwidth to/from this memory (bytes/s)
system.mem_ctrls.bw_total::switch_cpus_16.data         7696                       # Total bandwidth to/from this memory (bytes/s)
system.mem_ctrls.bw_total::switch_cpus_17.inst         1225                       # Total bandwidth to/from this memory (bytes/s)
system.mem_ctrls.bw_total::switch_cpus_17.data        25117                       # Total bandwidth to/from this memory (bytes/s)
system.mem_ctrls.bw_total::total              1129151                       # Total bandwidth to/from this memory (bytes/s)
system.mem_ctrls.readReqs                        4256                       # Number of read requests accepted
system.mem_ctrls.writeReqs                      25231                       # Number of write requests accepted
system.mem_ctrls.readBursts                      4256                       # Number of DRAM read bursts, including those serviced by the write queue
system.mem_ctrls.writeBursts                    25231                       # Number of DRAM write bursts, including those merged in the write queue
system.mem_ctrls.bytesReadDRAM                 271424                       # Total number of bytes read from DRAM
system.mem_ctrls.bytesReadWrQ                     960                       # Total number of bytes read from write queue
system.mem_ctrls.bytesWritten                 1613504                       # Total number of bytes written to DRAM
system.mem_ctrls.bytesReadSys                  272384                       # Total read bytes from the system interface side
system.mem_ctrls.bytesWrittenSys              1614784                       # Total written bytes from the system interface side
system.mem_ctrls.servicedByWrQ                     15                       # Number of DRAM read bursts serviced by the write queue
system.mem_ctrls.mergedWrBursts                     0                       # Number of DRAM write bursts merged with an existing one
system.mem_ctrls.neitherReadNorWriteReqs            0                       # Number of requests that are neither read nor write
system.mem_ctrls.perBankRdBursts::0               358                       # Per bank write bursts
system.mem_ctrls.perBankRdBursts::1               204                       # Per bank write bursts
system.mem_ctrls.perBankRdBursts::2               128                       # Per bank write bursts
system.mem_ctrls.perBankRdBursts::3               185                       # Per bank write bursts
system.mem_ctrls.perBankRdBursts::4               393                       # Per bank write bursts
system.mem_ctrls.perBankRdBursts::5               252                       # Per bank write bursts
system.mem_ctrls.perBankRdBursts::6               319                       # Per bank write bursts
system.mem_ctrls.perBankRdBursts::7               328                       # Per bank write bursts
system.mem_ctrls.perBankRdBursts::8               215                       # Per bank write bursts
system.mem_ctrls.perBankRdBursts::9               185                       # Per bank write bursts
system.mem_ctrls.perBankRdBursts::10              167                       # Per bank write bursts
system.mem_ctrls.perBankRdBursts::11              144                       # Per bank write bursts
system.mem_ctrls.perBankRdBursts::12              573                       # Per bank write bursts
system.mem_ctrls.perBankRdBursts::13              400                       # Per bank write bursts
system.mem_ctrls.perBankRdBursts::14              283                       # Per bank write bursts
system.mem_ctrls.perBankRdBursts::15              107                       # Per bank write bursts
system.mem_ctrls.perBankWrBursts::0              1449                       # Per bank write bursts
system.mem_ctrls.perBankWrBursts::1              1351                       # Per bank write bursts
system.mem_ctrls.perBankWrBursts::2              1192                       # Per bank write bursts
system.mem_ctrls.perBankWrBursts::3              1320                       # Per bank write bursts
system.mem_ctrls.perBankWrBursts::4              1459                       # Per bank write bursts
system.mem_ctrls.perBankWrBursts::5              1358                       # Per bank write bursts
system.mem_ctrls.perBankWrBursts::6              1290                       # Per bank write bursts
system.mem_ctrls.perBankWrBursts::7              1367                       # Per bank write bursts
system.mem_ctrls.perBankWrBursts::8              1776                       # Per bank write bursts
system.mem_ctrls.perBankWrBursts::9              1811                       # Per bank write bursts
system.mem_ctrls.perBankWrBursts::10             1882                       # Per bank write bursts
system.mem_ctrls.perBankWrBursts::11             1731                       # Per bank write bursts
system.mem_ctrls.perBankWrBursts::12             1827                       # Per bank write bursts
system.mem_ctrls.perBankWrBursts::13             1897                       # Per bank write bursts
system.mem_ctrls.perBankWrBursts::14             1992                       # Per bank write bursts
system.mem_ctrls.perBankWrBursts::15             1509                       # Per bank write bursts
system.mem_ctrls.numRdRetry                         0                       # Number of times read queue was full causing retry
system.mem_ctrls.numWrRetry                        22                       # Number of times write queue was full causing retry
system.mem_ctrls.totGap                  1390612573500                       # Total gap between requests
system.mem_ctrls.readPktSize::0                     0                       # Read request sizes (log2)
system.mem_ctrls.readPktSize::1                     0                       # Read request sizes (log2)
system.mem_ctrls.readPktSize::2                     0                       # Read request sizes (log2)
system.mem_ctrls.readPktSize::3                     0                       # Read request sizes (log2)
system.mem_ctrls.readPktSize::4                     0                       # Read request sizes (log2)
system.mem_ctrls.readPktSize::5                     0                       # Read request sizes (log2)
system.mem_ctrls.readPktSize::6                  4256                       # Read request sizes (log2)
system.mem_ctrls.writePktSize::0                    0                       # Write request sizes (log2)
system.mem_ctrls.writePktSize::1                    0                       # Write request sizes (log2)
system.mem_ctrls.writePktSize::2                    0                       # Write request sizes (log2)
system.mem_ctrls.writePktSize::3                    0                       # Write request sizes (log2)
system.mem_ctrls.writePktSize::4                    0                       # Write request sizes (log2)
system.mem_ctrls.writePktSize::5                    0                       # Write request sizes (log2)
system.mem_ctrls.writePktSize::6                25231                       # Write request sizes (log2)
system.mem_ctrls.rdQLenPdf::0                    4204                       # What read queue length does an incoming req see
system.mem_ctrls.rdQLenPdf::1                      29                       # What read queue length does an incoming req see
system.mem_ctrls.rdQLenPdf::2                       5                       # What read queue length does an incoming req see
system.mem_ctrls.rdQLenPdf::3                       3                       # What read queue length does an incoming req see
system.mem_ctrls.rdQLenPdf::4                       0                       # What read queue length does an incoming req see
system.mem_ctrls.rdQLenPdf::5                       0                       # What read queue length does an incoming req see
system.mem_ctrls.rdQLenPdf::6                       0                       # What read queue length does an incoming req see
system.mem_ctrls.rdQLenPdf::7                       0                       # What read queue length does an incoming req see
system.mem_ctrls.rdQLenPdf::8                       0                       # What read queue length does an incoming req see
system.mem_ctrls.rdQLenPdf::9                       0                       # What read queue length does an incoming req see
system.mem_ctrls.rdQLenPdf::10                      0                       # What read queue length does an incoming req see
system.mem_ctrls.rdQLenPdf::11                      0                       # What read queue length does an incoming req see
system.mem_ctrls.rdQLenPdf::12                      0                       # What read queue length does an incoming req see
system.mem_ctrls.rdQLenPdf::13                      0                       # What read queue length does an incoming req see
system.mem_ctrls.rdQLenPdf::14                      0                       # What read queue length does an incoming req see
system.mem_ctrls.rdQLenPdf::15                      0                       # What read queue length does an incoming req see
system.mem_ctrls.rdQLenPdf::16                      0                       # What read queue length does an incoming req see
system.mem_ctrls.rdQLenPdf::17                      0                       # What read queue length does an incoming req see
system.mem_ctrls.rdQLenPdf::18                      0                       # What read queue length does an incoming req see
system.mem_ctrls.rdQLenPdf::19                      0                       # What read queue length does an incoming req see
system.mem_ctrls.rdQLenPdf::20                      0                       # What read queue length does an incoming req see
system.mem_ctrls.rdQLenPdf::21                      0                       # What read queue length does an incoming req see
system.mem_ctrls.rdQLenPdf::22                      0                       # What read queue length does an incoming req see
system.mem_ctrls.rdQLenPdf::23                      0                       # What read queue length does an incoming req see
system.mem_ctrls.rdQLenPdf::24                      0                       # What read queue length does an incoming req see
system.mem_ctrls.rdQLenPdf::25                      0                       # What read queue length does an incoming req see
system.mem_ctrls.rdQLenPdf::26                      0                       # What read queue length does an incoming req see
system.mem_ctrls.rdQLenPdf::27                      0                       # What read queue length does an incoming req see
system.mem_ctrls.rdQLenPdf::28                      0                       # What read queue length does an incoming req see
system.mem_ctrls.rdQLenPdf::29                      0                       # What read queue length does an incoming req see
system.mem_ctrls.rdQLenPdf::30                      0                       # What read queue length does an incoming req see
system.mem_ctrls.rdQLenPdf::31                      0                       # What read queue length does an incoming req see
system.mem_ctrls.wrQLenPdf::0                       1                       # What write queue length does an incoming req see
system.mem_ctrls.wrQLenPdf::1                       1                       # What write queue length does an incoming req see
system.mem_ctrls.wrQLenPdf::2                       1                       # What write queue length does an incoming req see
system.mem_ctrls.wrQLenPdf::3                       1                       # What write queue length does an incoming req see
system.mem_ctrls.wrQLenPdf::4                       1                       # What write queue length does an incoming req see
system.mem_ctrls.wrQLenPdf::5                       1                       # What write queue length does an incoming req see
system.mem_ctrls.wrQLenPdf::6                       1                       # What write queue length does an incoming req see
system.mem_ctrls.wrQLenPdf::7                       1                       # What write queue length does an incoming req see
system.mem_ctrls.wrQLenPdf::8                       1                       # What write queue length does an incoming req see
system.mem_ctrls.wrQLenPdf::9                       1                       # What write queue length does an incoming req see
system.mem_ctrls.wrQLenPdf::10                      1                       # What write queue length does an incoming req see
system.mem_ctrls.wrQLenPdf::11                      1                       # What write queue length does an incoming req see
system.mem_ctrls.wrQLenPdf::12                      1                       # What write queue length does an incoming req see
system.mem_ctrls.wrQLenPdf::13                      1                       # What write queue length does an incoming req see
system.mem_ctrls.wrQLenPdf::14                      1                       # What write queue length does an incoming req see
system.mem_ctrls.wrQLenPdf::15                    516                       # What write queue length does an incoming req see
system.mem_ctrls.wrQLenPdf::16                   1109                       # What write queue length does an incoming req see
system.mem_ctrls.wrQLenPdf::17                    833                       # What write queue length does an incoming req see
system.mem_ctrls.wrQLenPdf::18                    759                       # What write queue length does an incoming req see
system.mem_ctrls.wrQLenPdf::19                   1003                       # What write queue length does an incoming req see
system.mem_ctrls.wrQLenPdf::20                    794                       # What write queue length does an incoming req see
system.mem_ctrls.wrQLenPdf::21                    984                       # What write queue length does an incoming req see
system.mem_ctrls.wrQLenPdf::22                   1266                       # What write queue length does an incoming req see
system.mem_ctrls.wrQLenPdf::23                   1832                       # What write queue length does an incoming req see
system.mem_ctrls.wrQLenPdf::24                   1594                       # What write queue length does an incoming req see
system.mem_ctrls.wrQLenPdf::25                   2355                       # What write queue length does an incoming req see
system.mem_ctrls.wrQLenPdf::26                   2812                       # What write queue length does an incoming req see
system.mem_ctrls.wrQLenPdf::27                   1571                       # What write queue length does an incoming req see
system.mem_ctrls.wrQLenPdf::28                   1141                       # What write queue length does an incoming req see
system.mem_ctrls.wrQLenPdf::29                   1123                       # What write queue length does an incoming req see
system.mem_ctrls.wrQLenPdf::30                    986                       # What write queue length does an incoming req see
system.mem_ctrls.wrQLenPdf::31                    766                       # What write queue length does an incoming req see
system.mem_ctrls.wrQLenPdf::32                    740                       # What write queue length does an incoming req see
system.mem_ctrls.wrQLenPdf::33                    146                       # What write queue length does an incoming req see
system.mem_ctrls.wrQLenPdf::34                    125                       # What write queue length does an incoming req see
system.mem_ctrls.wrQLenPdf::35                    114                       # What write queue length does an incoming req see
system.mem_ctrls.wrQLenPdf::36                    103                       # What write queue length does an incoming req see
system.mem_ctrls.wrQLenPdf::37                     85                       # What write queue length does an incoming req see
system.mem_ctrls.wrQLenPdf::38                    108                       # What write queue length does an incoming req see
system.mem_ctrls.wrQLenPdf::39                     83                       # What write queue length does an incoming req see
system.mem_ctrls.wrQLenPdf::40                     90                       # What write queue length does an incoming req see
system.mem_ctrls.wrQLenPdf::41                     90                       # What write queue length does an incoming req see
system.mem_ctrls.wrQLenPdf::42                    115                       # What write queue length does an incoming req see
system.mem_ctrls.wrQLenPdf::43                    136                       # What write queue length does an incoming req see
system.mem_ctrls.wrQLenPdf::44                    152                       # What write queue length does an incoming req see
system.mem_ctrls.wrQLenPdf::45                     98                       # What write queue length does an incoming req see
system.mem_ctrls.wrQLenPdf::46                    128                       # What write queue length does an incoming req see
system.mem_ctrls.wrQLenPdf::47                     85                       # What write queue length does an incoming req see
system.mem_ctrls.wrQLenPdf::48                    129                       # What write queue length does an incoming req see
system.mem_ctrls.wrQLenPdf::49                     91                       # What write queue length does an incoming req see
system.mem_ctrls.wrQLenPdf::50                    125                       # What write queue length does an incoming req see
system.mem_ctrls.wrQLenPdf::51                     70                       # What write queue length does an incoming req see
system.mem_ctrls.wrQLenPdf::52                     98                       # What write queue length does an incoming req see
system.mem_ctrls.wrQLenPdf::53                    104                       # What write queue length does an incoming req see
system.mem_ctrls.wrQLenPdf::54                     72                       # What write queue length does an incoming req see
system.mem_ctrls.wrQLenPdf::55                     79                       # What write queue length does an incoming req see
system.mem_ctrls.wrQLenPdf::56                    124                       # What write queue length does an incoming req see
system.mem_ctrls.wrQLenPdf::57                    104                       # What write queue length does an incoming req see
system.mem_ctrls.wrQLenPdf::58                     57                       # What write queue length does an incoming req see
system.mem_ctrls.wrQLenPdf::59                     98                       # What write queue length does an incoming req see
system.mem_ctrls.wrQLenPdf::60                     81                       # What write queue length does an incoming req see
system.mem_ctrls.wrQLenPdf::61                     56                       # What write queue length does an incoming req see
system.mem_ctrls.wrQLenPdf::62                     22                       # What write queue length does an incoming req see
system.mem_ctrls.wrQLenPdf::63                     64                       # What write queue length does an incoming req see
system.mem_ctrls.bytesPerActivate::samples         4575                       # Bytes accessed per row activation
system.mem_ctrls.bytesPerActivate::mean    412.006120                       # Bytes accessed per row activation
system.mem_ctrls.bytesPerActivate::gmean   195.875481                       # Bytes accessed per row activation
system.mem_ctrls.bytesPerActivate::stdev   439.222842                       # Bytes accessed per row activation
system.mem_ctrls.bytesPerActivate::0-127         2257     49.33%     49.33% # Bytes accessed per row activation
system.mem_ctrls.bytesPerActivate::128-255          529     11.56%     60.90% # Bytes accessed per row activation
system.mem_ctrls.bytesPerActivate::256-383          123      2.69%     63.58% # Bytes accessed per row activation
system.mem_ctrls.bytesPerActivate::384-511           64      1.40%     64.98% # Bytes accessed per row activation
system.mem_ctrls.bytesPerActivate::512-639           41      0.90%     65.88% # Bytes accessed per row activation
system.mem_ctrls.bytesPerActivate::640-767           25      0.55%     66.43% # Bytes accessed per row activation
system.mem_ctrls.bytesPerActivate::768-895           18      0.39%     66.82% # Bytes accessed per row activation
system.mem_ctrls.bytesPerActivate::896-1023           55      1.20%     68.02% # Bytes accessed per row activation
system.mem_ctrls.bytesPerActivate::1024-1151         1463     31.98%    100.00% # Bytes accessed per row activation
system.mem_ctrls.bytesPerActivate::total         4575                       # Bytes accessed per row activation
system.mem_ctrls.rdPerTurnAround::samples          565                       # Reads before turning the bus around for writes
system.mem_ctrls.rdPerTurnAround::mean       7.458407                       # Reads before turning the bus around for writes
system.mem_ctrls.rdPerTurnAround::stdev     21.683256                       # Reads before turning the bus around for writes
system.mem_ctrls.rdPerTurnAround::0-7             465     82.30%     82.30% # Reads before turning the bus around for writes
system.mem_ctrls.rdPerTurnAround::8-15             10      1.77%     84.07% # Reads before turning the bus around for writes
system.mem_ctrls.rdPerTurnAround::16-23            26      4.60%     88.67% # Reads before turning the bus around for writes
system.mem_ctrls.rdPerTurnAround::24-31            16      2.83%     91.50% # Reads before turning the bus around for writes
system.mem_ctrls.rdPerTurnAround::32-39             9      1.59%     93.10% # Reads before turning the bus around for writes
system.mem_ctrls.rdPerTurnAround::40-47            10      1.77%     94.87% # Reads before turning the bus around for writes
system.mem_ctrls.rdPerTurnAround::48-55             6      1.06%     95.93% # Reads before turning the bus around for writes
system.mem_ctrls.rdPerTurnAround::56-63             7      1.24%     97.17% # Reads before turning the bus around for writes
system.mem_ctrls.rdPerTurnAround::64-71             6      1.06%     98.23% # Reads before turning the bus around for writes
system.mem_ctrls.rdPerTurnAround::72-79             2      0.35%     98.58% # Reads before turning the bus around for writes
system.mem_ctrls.rdPerTurnAround::80-87             2      0.35%     98.94% # Reads before turning the bus around for writes
system.mem_ctrls.rdPerTurnAround::96-103            2      0.35%     99.29% # Reads before turning the bus around for writes
system.mem_ctrls.rdPerTurnAround::128-135            1      0.18%     99.47% # Reads before turning the bus around for writes
system.mem_ctrls.rdPerTurnAround::136-143            1      0.18%     99.65% # Reads before turning the bus around for writes
system.mem_ctrls.rdPerTurnAround::184-191            1      0.18%     99.82% # Reads before turning the bus around for writes
system.mem_ctrls.rdPerTurnAround::232-239            1      0.18%    100.00% # Reads before turning the bus around for writes
system.mem_ctrls.rdPerTurnAround::total           565                       # Reads before turning the bus around for writes
system.mem_ctrls.wrPerTurnAround::samples          565                       # Writes before turning the bus around for reads
system.mem_ctrls.wrPerTurnAround::mean      44.621239                       # Writes before turning the bus around for reads
system.mem_ctrls.wrPerTurnAround::gmean     37.517095                       # Writes before turning the bus around for reads
system.mem_ctrls.wrPerTurnAround::stdev     31.028897                       # Writes before turning the bus around for reads
system.mem_ctrls.wrPerTurnAround::16-19            99     17.52%     17.52% # Writes before turning the bus around for reads
system.mem_ctrls.wrPerTurnAround::20-23            26      4.60%     22.12% # Writes before turning the bus around for reads
system.mem_ctrls.wrPerTurnAround::24-27            13      2.30%     24.42% # Writes before turning the bus around for reads
system.mem_ctrls.wrPerTurnAround::28-31            26      4.60%     29.03% # Writes before turning the bus around for reads
system.mem_ctrls.wrPerTurnAround::32-35           165     29.20%     58.23% # Writes before turning the bus around for reads
system.mem_ctrls.wrPerTurnAround::36-39            19      3.36%     61.59% # Writes before turning the bus around for reads
system.mem_ctrls.wrPerTurnAround::40-43            17      3.01%     64.60% # Writes before turning the bus around for reads
system.mem_ctrls.wrPerTurnAround::44-47             9      1.59%     66.19% # Writes before turning the bus around for reads
system.mem_ctrls.wrPerTurnAround::48-51             9      1.59%     67.79% # Writes before turning the bus around for reads
system.mem_ctrls.wrPerTurnAround::52-55             3      0.53%     68.32% # Writes before turning the bus around for reads
system.mem_ctrls.wrPerTurnAround::56-59             2      0.35%     68.67% # Writes before turning the bus around for reads
system.mem_ctrls.wrPerTurnAround::60-63             7      1.24%     69.91% # Writes before turning the bus around for reads
system.mem_ctrls.wrPerTurnAround::64-67           125     22.12%     92.04% # Writes before turning the bus around for reads
system.mem_ctrls.wrPerTurnAround::68-71             3      0.53%     92.57% # Writes before turning the bus around for reads
system.mem_ctrls.wrPerTurnAround::72-75             1      0.18%     92.74% # Writes before turning the bus around for reads
system.mem_ctrls.wrPerTurnAround::76-79             5      0.88%     93.63% # Writes before turning the bus around for reads
system.mem_ctrls.wrPerTurnAround::80-83             1      0.18%     93.81% # Writes before turning the bus around for reads
system.mem_ctrls.wrPerTurnAround::84-87             3      0.53%     94.34% # Writes before turning the bus around for reads
system.mem_ctrls.wrPerTurnAround::92-95             1      0.18%     94.51% # Writes before turning the bus around for reads
system.mem_ctrls.wrPerTurnAround::96-99             2      0.35%     94.87% # Writes before turning the bus around for reads
system.mem_ctrls.wrPerTurnAround::104-107            2      0.35%     95.22% # Writes before turning the bus around for reads
system.mem_ctrls.wrPerTurnAround::108-111            5      0.88%     96.11% # Writes before turning the bus around for reads
system.mem_ctrls.wrPerTurnAround::112-115            1      0.18%     96.28% # Writes before turning the bus around for reads
system.mem_ctrls.wrPerTurnAround::120-123            2      0.35%     96.64% # Writes before turning the bus around for reads
system.mem_ctrls.wrPerTurnAround::124-127            2      0.35%     96.99% # Writes before turning the bus around for reads
system.mem_ctrls.wrPerTurnAround::128-131            4      0.71%     97.70% # Writes before turning the bus around for reads
system.mem_ctrls.wrPerTurnAround::136-139            1      0.18%     97.88% # Writes before turning the bus around for reads
system.mem_ctrls.wrPerTurnAround::140-143            2      0.35%     98.23% # Writes before turning the bus around for reads
system.mem_ctrls.wrPerTurnAround::180-183            2      0.35%     98.58% # Writes before turning the bus around for reads
system.mem_ctrls.wrPerTurnAround::184-187            1      0.18%     98.76% # Writes before turning the bus around for reads
system.mem_ctrls.wrPerTurnAround::188-191            3      0.53%     99.29% # Writes before turning the bus around for reads
system.mem_ctrls.wrPerTurnAround::192-195            3      0.53%     99.82% # Writes before turning the bus around for reads
system.mem_ctrls.wrPerTurnAround::252-255            1      0.18%    100.00% # Writes before turning the bus around for reads
system.mem_ctrls.wrPerTurnAround::total           565                       # Writes before turning the bus around for reads
system.mem_ctrls.totQLat                    395209500                       # Total ticks spent queuing
system.mem_ctrls.totMemAccLat               474728250                       # Total ticks spent from burst creation until serviced by the DRAM
system.mem_ctrls.totBusLat                   21205000                       # Total ticks spent in databus transfers
system.mem_ctrls.avgQLat                     93187.81                       # Average queueing delay per DRAM burst
system.mem_ctrls.avgBusLat                    5000.00                       # Average bus latency per DRAM burst
system.mem_ctrls.avgMemAccLat               111937.81                       # Average memory access latency per DRAM burst
system.mem_ctrls.avgRdBW                         0.16                       # Average DRAM read bandwidth in MiByte/s
system.mem_ctrls.avgWrBW                         0.97                       # Average achieved write bandwidth in MiByte/s
system.mem_ctrls.avgRdBWSys                      0.16                       # Average system read bandwidth in MiByte/s
system.mem_ctrls.avgWrBWSys                      0.97                       # Average system write bandwidth in MiByte/s
system.mem_ctrls.peakBW                      12800.00                       # Theoretical peak bandwidth in MiByte/s
system.mem_ctrls.busUtil                         0.01                       # Data bus utilization in percentage
system.mem_ctrls.busUtilRead                     0.00                       # Data bus utilization in percentage for reads
system.mem_ctrls.busUtilWrite                    0.01                       # Data bus utilization in percentage for writes
system.mem_ctrls.avgRdQLen                       1.00                       # Average read queue length when enqueuing
system.mem_ctrls.avgWrQLen                      22.66                       # Average write queue length when enqueuing
system.mem_ctrls.readRowHits                     2229                       # Number of row buffer hits during reads
system.mem_ctrls.writeRowHits                   22648                       # Number of row buffer hits during writes
system.mem_ctrls.readRowHitRate                 52.56                       # Row buffer hit rate for reads
system.mem_ctrls.writeRowHitRate                89.76                       # Row buffer hit rate for writes
system.mem_ctrls.avgGap                   47160191.73                       # Average gap between requests
system.mem_ctrls.pageHitRate                    84.41                       # Row buffer hit rate, read and write combined
system.mem_ctrls_0.actEnergy                 15108240                       # Energy for activate commands per rank (pJ)
system.mem_ctrls_0.preEnergy                  8030220                       # Energy for precharge commands per rank (pJ)
system.mem_ctrls_0.readEnergy                15472380                       # Energy for read commands per rank (pJ)
system.mem_ctrls_0.writeEnergy               56302920                       # Energy for write commands per rank (pJ)
system.mem_ctrls_0.refreshEnergy         678562560.000000                       # Energy for refresh commands per rank (pJ)
system.mem_ctrls_0.actBackEnergy            326785560                       # Energy for active background per rank (pJ)
system.mem_ctrls_0.preBackEnergy             46562880                       # Energy for precharge background per rank (pJ)
system.mem_ctrls_0.actPowerDownEnergy      1239373230                       # Energy for active power-down per rank (pJ)
system.mem_ctrls_0.prePowerDownEnergy       999781920                       # Energy for precharge power-down per rank (pJ)
system.mem_ctrls_0.selfRefreshEnergy     399869990640                       # Energy for self refresh per rank (pJ)
system.mem_ctrls_0.totalEnergy           403256087550                       # Total energy per rank (pJ)
system.mem_ctrls_0.averagePower            241.247825                       # Core power per rank (mW)
system.mem_ctrls_0.totalIdleTime         1389783153250                       # Total Idle time Per DRAM Rank
system.mem_ctrls_0.memoryStateTime::IDLE    102489000                       # Time in different power states
system.mem_ctrls_0.memoryStateTime::REF     289056000                       # Time in different power states
system.mem_ctrls_0.memoryStateTime::SREF 1665351573250                       # Time in different power states
system.mem_ctrls_0.memoryStateTime::PRE_PDN   2603614500                       # Time in different power states
system.mem_ctrls_0.memoryStateTime::ACT     454363750                       # Time in different power states
system.mem_ctrls_0.memoryStateTime::ACT_PDN   2717929000                       # Time in different power states
system.mem_ctrls_1.actEnergy                 17557260                       # Energy for activate commands per rank (pJ)
system.mem_ctrls_1.preEnergy                  9331905                       # Energy for precharge commands per rank (pJ)
system.mem_ctrls_1.readEnergy                14808360                       # Energy for read commands per rank (pJ)
system.mem_ctrls_1.writeEnergy               75298500                       # Energy for write commands per rank (pJ)
system.mem_ctrls_1.refreshEnergy         678562560.000000                       # Energy for refresh commands per rank (pJ)
system.mem_ctrls_1.actBackEnergy            365559240                       # Energy for active background per rank (pJ)
system.mem_ctrls_1.preBackEnergy             43253760                       # Energy for precharge background per rank (pJ)
system.mem_ctrls_1.actPowerDownEnergy      1265047170                       # Energy for active power-down per rank (pJ)
system.mem_ctrls_1.prePowerDownEnergy      1007349120                       # Energy for precharge power-down per rank (pJ)
system.mem_ctrls_1.selfRefreshEnergy     399824142240                       # Energy for self refresh per rank (pJ)
system.mem_ctrls_1.totalEnergy           403301018565                       # Total energy per rank (pJ)
system.mem_ctrls_1.averagePower            241.274705                       # Core power per rank (mW)
system.mem_ctrls_1.totalIdleTime         1213762019250                       # Total Idle time Per DRAM Rank
system.mem_ctrls_1.memoryStateTime::IDLE     86604000                       # Time in different power states
system.mem_ctrls_1.memoryStateTime::REF     288942000                       # Time in different power states
system.mem_ctrls_1.memoryStateTime::SREF 1665206568250                       # Time in different power states
system.mem_ctrls_1.memoryStateTime::PRE_PDN   2623306250                       # Time in different power states
system.mem_ctrls_1.memoryStateTime::ACT     539345750                       # Time in different power states
system.mem_ctrls_1.memoryStateTime::ACT_PDN   2774259250                       # Time in different power states
system.pwrStateResidencyTicks::UNDEFINED 6471716611500                       # Cumulative time (in ticks) in various power states
system.apicbridge.pwrStateResidencyTicks::UNDEFINED 6471716611500                       # Cumulative time (in ticks) in various power states
system.bridge.pwrStateResidencyTicks::UNDEFINED 6471716611500                       # Cumulative time (in ticks) in various power states
system.cpu_voltage_domain.voltage                   1                       # Voltage in Volts
system.cpu_clk_domain.clock                       500                       # Clock period in ticks
system.cpu0.dtb.walker.pwrStateResidencyTicks::UNDEFINED 6471716611500                       # Cumulative time (in ticks) in various power states
system.cpu0.dtb.rdAccesses                          0                       # TLB accesses on read requests
system.cpu0.dtb.wrAccesses                          0                       # TLB accesses on write requests
system.cpu0.dtb.rdMisses                            0                       # TLB misses on read requests
system.cpu0.dtb.wrMisses                            0                       # TLB misses on write requests
system.cpu0.apic_clk_domain.clock                8000                       # Clock period in ticks
system.cpu0.interrupts.pwrStateResidencyTicks::UNDEFINED 6471716611500                       # Cumulative time (in ticks) in various power states
system.cpu0.itb.walker.pwrStateResidencyTicks::UNDEFINED 6471716611500                       # Cumulative time (in ticks) in various power states
system.cpu0.itb.rdAccesses                          0                       # TLB accesses on read requests
system.cpu0.itb.wrAccesses                          0                       # TLB accesses on write requests
system.cpu0.itb.rdMisses                            0                       # TLB misses on read requests
system.cpu0.itb.wrMisses                            0                       # TLB misses on write requests
system.cpu0.pwrStateResidencyTicks::OFF  6471716609500                       # Cumulative time (in ticks) in various power states
system.cpu0.numCycles                               0                       # number of cpu cycles simulated
system.cpu0.numWorkItemsStarted                     0                       # number of work items this cpu started
system.cpu0.numWorkItemsCompleted                   0                       # number of work items this cpu completed
system.cpu0.kern.inst.arm                           0                       # number of arm instructions executed
system.cpu0.kern.inst.quiesce                       0                       # number of quiesce instructions executed
system.cpu0.committedInsts                          0                       # Number of instructions committed
system.cpu0.committedOps                            0                       # Number of ops (including micro ops) committed
system.cpu0.num_int_alu_accesses                    0                       # Number of integer alu accesses
system.cpu0.num_fp_alu_accesses                     0                       # Number of float alu accesses
system.cpu0.num_vec_alu_accesses                    0                       # Number of vector alu accesses
system.cpu0.num_func_calls                          0                       # number of times a function call or return occured
system.cpu0.num_conditional_control_insts            0                       # number of instructions that are conditional controls
system.cpu0.num_int_insts                           0                       # number of integer instructions
system.cpu0.num_fp_insts                            0                       # number of float instructions
system.cpu0.num_vec_insts                           0                       # number of vector instructions
system.cpu0.num_int_register_reads                  0                       # number of times the integer registers were read
system.cpu0.num_int_register_writes                 0                       # number of times the integer registers were written
system.cpu0.num_fp_register_reads                   0                       # number of times the floating registers were read
system.cpu0.num_fp_register_writes                  0                       # number of times the floating registers were written
system.cpu0.num_vec_register_reads                  0                       # number of times the vector registers were read
system.cpu0.num_vec_register_writes                 0                       # number of times the vector registers were written
system.cpu0.num_mem_refs                            0                       # number of memory refs
system.cpu0.num_load_insts                          0                       # Number of load instructions
system.cpu0.num_store_insts                         0                       # Number of store instructions
system.cpu0.num_idle_cycles                         0                       # Number of idle cycles
system.cpu0.num_busy_cycles                         0                       # Number of busy cycles
system.cpu0.not_idle_fraction                       1                       # Percentage of non-idle cycles
system.cpu0.idle_fraction                           0                       # Percentage of idle cycles
system.cpu0.op_class::No_OpClass                    0                       # Class of executed instruction
system.cpu0.op_class::IntAlu                        0                       # Class of executed instruction
system.cpu0.op_class::IntMult                       0                       # Class of executed instruction
system.cpu0.op_class::IntDiv                        0                       # Class of executed instruction
system.cpu0.op_class::FloatAdd                      0                       # Class of executed instruction
system.cpu0.op_class::FloatCmp                      0                       # Class of executed instruction
system.cpu0.op_class::FloatCvt                      0                       # Class of executed instruction
system.cpu0.op_class::FloatMult                     0                       # Class of executed instruction
system.cpu0.op_class::FloatMultAcc                  0                       # Class of executed instruction
system.cpu0.op_class::FloatDiv                      0                       # Class of executed instruction
system.cpu0.op_class::FloatMisc                     0                       # Class of executed instruction
system.cpu0.op_class::FloatSqrt                     0                       # Class of executed instruction
system.cpu0.op_class::SimdAdd                       0                       # Class of executed instruction
system.cpu0.op_class::SimdAddAcc                    0                       # Class of executed instruction
system.cpu0.op_class::SimdAlu                       0                       # Class of executed instruction
system.cpu0.op_class::SimdCmp                       0                       # Class of executed instruction
system.cpu0.op_class::SimdCvt                       0                       # Class of executed instruction
system.cpu0.op_class::SimdMisc                      0                       # Class of executed instruction
system.cpu0.op_class::SimdMult                      0                       # Class of executed instruction
system.cpu0.op_class::SimdMultAcc                   0                       # Class of executed instruction
system.cpu0.op_class::SimdShift                     0                       # Class of executed instruction
system.cpu0.op_class::SimdShiftAcc                  0                       # Class of executed instruction
system.cpu0.op_class::SimdSqrt                      0                       # Class of executed instruction
system.cpu0.op_class::SimdFloatAdd                  0                       # Class of executed instruction
system.cpu0.op_class::SimdFloatAlu                  0                       # Class of executed instruction
system.cpu0.op_class::SimdFloatCmp                  0                       # Class of executed instruction
system.cpu0.op_class::SimdFloatCvt                  0                       # Class of executed instruction
system.cpu0.op_class::SimdFloatDiv                  0                       # Class of executed instruction
system.cpu0.op_class::SimdFloatMisc                 0                       # Class of executed instruction
system.cpu0.op_class::SimdFloatMult                 0                       # Class of executed instruction
system.cpu0.op_class::SimdFloatMultAcc              0                       # Class of executed instruction
system.cpu0.op_class::SimdFloatSqrt                 0                       # Class of executed instruction
system.cpu0.op_class::MemRead                       0                       # Class of executed instruction
system.cpu0.op_class::MemWrite                      0                       # Class of executed instruction
system.cpu0.op_class::FloatMemRead                  0                       # Class of executed instruction
system.cpu0.op_class::FloatMemWrite                 0                       # Class of executed instruction
system.cpu0.op_class::IprAccess                     0                       # Class of executed instruction
system.cpu0.op_class::InstPrefetch                  0                       # Class of executed instruction
system.cpu0.op_class::total                         0                       # Class of executed instruction
system.cpu0.dcache.tags.pwrStateResidencyTicks::UNDEFINED 6471716611500                       # Cumulative time (in ticks) in various power states
system.cpu0.dcache.tags.replacements            18837                       # number of replacements
system.cpu0.dcache.tags.tagsinuse          881.642402                       # Cycle average of tags in use
system.cpu0.dcache.tags.total_refs            1061843                       # Total number of references to valid blocks.
system.cpu0.dcache.tags.sampled_refs            19812                       # Sample count of references to valid blocks.
system.cpu0.dcache.tags.avg_refs            53.595952                       # Average number of references to valid blocks.
system.cpu0.dcache.tags.warmup_cycle                0                       # Cycle when the warmup percentage was hit.
system.cpu0.dcache.tags.occ_blocks::switch_cpus0.data    28.982583                       # Average occupied blocks per requestor
system.cpu0.dcache.tags.occ_blocks::switch_cpus_10.data   852.659819                       # Average occupied blocks per requestor
system.cpu0.dcache.tags.occ_percent::switch_cpus0.data     0.028303                       # Average percentage of cache occupancy
system.cpu0.dcache.tags.occ_percent::switch_cpus_10.data     0.832676                       # Average percentage of cache occupancy
system.cpu0.dcache.tags.occ_percent::total     0.860979                       # Average percentage of cache occupancy
system.cpu0.dcache.tags.occ_task_id_blocks::1024          975                       # Occupied blocks per task id
system.cpu0.dcache.tags.age_task_id_blocks_1024::2           16                       # Occupied blocks per task id
system.cpu0.dcache.tags.age_task_id_blocks_1024::4          959                       # Occupied blocks per task id
system.cpu0.dcache.tags.occ_task_id_percent::1024     0.952148                       # Percentage of cache occupancy per task id
system.cpu0.dcache.tags.tag_accesses          2246668                       # Number of tag accesses
system.cpu0.dcache.tags.data_accesses         2246668                       # Number of data accesses
system.cpu0.dcache.pwrStateResidencyTicks::UNDEFINED 6471716611500                       # Cumulative time (in ticks) in various power states
system.cpu0.dcache.ReadReq_hits::switch_cpus0.data         5744                       # number of ReadReq hits
system.cpu0.dcache.ReadReq_hits::switch_cpus_10.data       662396                       # number of ReadReq hits
system.cpu0.dcache.ReadReq_hits::total         668140                       # number of ReadReq hits
system.cpu0.dcache.WriteReq_hits::switch_cpus0.data         3169                       # number of WriteReq hits
system.cpu0.dcache.WriteReq_hits::switch_cpus_10.data       409739                       # number of WriteReq hits
system.cpu0.dcache.WriteReq_hits::total        412908                       # number of WriteReq hits
system.cpu0.dcache.SoftPFReq_hits::switch_cpus0.data            6                       # number of SoftPFReq hits
system.cpu0.dcache.SoftPFReq_hits::switch_cpus_10.data          117                       # number of SoftPFReq hits
system.cpu0.dcache.SoftPFReq_hits::total          123                       # number of SoftPFReq hits
system.cpu0.dcache.demand_hits::switch_cpus0.data         8913                       # number of demand (read+write) hits
system.cpu0.dcache.demand_hits::switch_cpus_10.data      1072135                       # number of demand (read+write) hits
system.cpu0.dcache.demand_hits::total         1081048                       # number of demand (read+write) hits
system.cpu0.dcache.overall_hits::switch_cpus0.data         8919                       # number of overall hits
system.cpu0.dcache.overall_hits::switch_cpus_10.data      1072252                       # number of overall hits
system.cpu0.dcache.overall_hits::total        1081171                       # number of overall hits
system.cpu0.dcache.ReadReq_misses::switch_cpus0.data           96                       # number of ReadReq misses
system.cpu0.dcache.ReadReq_misses::switch_cpus_10.data        21231                       # number of ReadReq misses
system.cpu0.dcache.ReadReq_misses::total        21327                       # number of ReadReq misses
system.cpu0.dcache.WriteReq_misses::switch_cpus0.data           59                       # number of WriteReq misses
system.cpu0.dcache.WriteReq_misses::switch_cpus_10.data         8056                       # number of WriteReq misses
system.cpu0.dcache.WriteReq_misses::total         8115                       # number of WriteReq misses
system.cpu0.dcache.SoftPFReq_misses::switch_cpus_10.data          421                       # number of SoftPFReq misses
system.cpu0.dcache.SoftPFReq_misses::total          421                       # number of SoftPFReq misses
system.cpu0.dcache.demand_misses::switch_cpus0.data          155                       # number of demand (read+write) misses
system.cpu0.dcache.demand_misses::switch_cpus_10.data        29287                       # number of demand (read+write) misses
system.cpu0.dcache.demand_misses::total         29442                       # number of demand (read+write) misses
system.cpu0.dcache.overall_misses::switch_cpus0.data          155                       # number of overall misses
system.cpu0.dcache.overall_misses::switch_cpus_10.data        29708                       # number of overall misses
system.cpu0.dcache.overall_misses::total        29863                       # number of overall misses
system.cpu0.dcache.ReadReq_miss_latency::switch_cpus_10.data    241793000                       # number of ReadReq miss cycles
system.cpu0.dcache.ReadReq_miss_latency::total    241793000                       # number of ReadReq miss cycles
system.cpu0.dcache.WriteReq_miss_latency::switch_cpus_10.data    109213500                       # number of WriteReq miss cycles
system.cpu0.dcache.WriteReq_miss_latency::total    109213500                       # number of WriteReq miss cycles
system.cpu0.dcache.demand_miss_latency::switch_cpus_10.data    351006500                       # number of demand (read+write) miss cycles
system.cpu0.dcache.demand_miss_latency::total    351006500                       # number of demand (read+write) miss cycles
system.cpu0.dcache.overall_miss_latency::switch_cpus_10.data    351006500                       # number of overall miss cycles
system.cpu0.dcache.overall_miss_latency::total    351006500                       # number of overall miss cycles
system.cpu0.dcache.ReadReq_accesses::switch_cpus0.data         5840                       # number of ReadReq accesses(hits+misses)
system.cpu0.dcache.ReadReq_accesses::switch_cpus_10.data       683627                       # number of ReadReq accesses(hits+misses)
system.cpu0.dcache.ReadReq_accesses::total       689467                       # number of ReadReq accesses(hits+misses)
system.cpu0.dcache.WriteReq_accesses::switch_cpus0.data         3228                       # number of WriteReq accesses(hits+misses)
system.cpu0.dcache.WriteReq_accesses::switch_cpus_10.data       417795                       # number of WriteReq accesses(hits+misses)
system.cpu0.dcache.WriteReq_accesses::total       421023                       # number of WriteReq accesses(hits+misses)
system.cpu0.dcache.SoftPFReq_accesses::switch_cpus0.data            6                       # number of SoftPFReq accesses(hits+misses)
system.cpu0.dcache.SoftPFReq_accesses::switch_cpus_10.data          538                       # number of SoftPFReq accesses(hits+misses)
system.cpu0.dcache.SoftPFReq_accesses::total          544                       # number of SoftPFReq accesses(hits+misses)
system.cpu0.dcache.demand_accesses::switch_cpus0.data         9068                       # number of demand (read+write) accesses
system.cpu0.dcache.demand_accesses::switch_cpus_10.data      1101422                       # number of demand (read+write) accesses
system.cpu0.dcache.demand_accesses::total      1110490                       # number of demand (read+write) accesses
system.cpu0.dcache.overall_accesses::switch_cpus0.data         9074                       # number of overall (read+write) accesses
system.cpu0.dcache.overall_accesses::switch_cpus_10.data      1101960                       # number of overall (read+write) accesses
system.cpu0.dcache.overall_accesses::total      1111034                       # number of overall (read+write) accesses
system.cpu0.dcache.ReadReq_miss_rate::switch_cpus0.data     0.016438                       # miss rate for ReadReq accesses
system.cpu0.dcache.ReadReq_miss_rate::switch_cpus_10.data     0.031056                       # miss rate for ReadReq accesses
system.cpu0.dcache.ReadReq_miss_rate::total     0.030933                       # miss rate for ReadReq accesses
system.cpu0.dcache.WriteReq_miss_rate::switch_cpus0.data     0.018278                       # miss rate for WriteReq accesses
system.cpu0.dcache.WriteReq_miss_rate::switch_cpus_10.data     0.019282                       # miss rate for WriteReq accesses
system.cpu0.dcache.WriteReq_miss_rate::total     0.019274                       # miss rate for WriteReq accesses
system.cpu0.dcache.SoftPFReq_miss_rate::switch_cpus_10.data     0.782528                       # miss rate for SoftPFReq accesses
system.cpu0.dcache.SoftPFReq_miss_rate::total     0.773897                       # miss rate for SoftPFReq accesses
system.cpu0.dcache.demand_miss_rate::switch_cpus0.data     0.017093                       # miss rate for demand accesses
system.cpu0.dcache.demand_miss_rate::switch_cpus_10.data     0.026590                       # miss rate for demand accesses
system.cpu0.dcache.demand_miss_rate::total     0.026513                       # miss rate for demand accesses
system.cpu0.dcache.overall_miss_rate::switch_cpus0.data     0.017082                       # miss rate for overall accesses
system.cpu0.dcache.overall_miss_rate::switch_cpus_10.data     0.026959                       # miss rate for overall accesses
system.cpu0.dcache.overall_miss_rate::total     0.026879                       # miss rate for overall accesses
system.cpu0.dcache.ReadReq_avg_miss_latency::switch_cpus_10.data 11388.676935                       # average ReadReq miss latency
system.cpu0.dcache.ReadReq_avg_miss_latency::total 11337.412669                       # average ReadReq miss latency
system.cpu0.dcache.WriteReq_avg_miss_latency::switch_cpus_10.data 13556.789970                       # average WriteReq miss latency
system.cpu0.dcache.WriteReq_avg_miss_latency::total 13458.225508                       # average WriteReq miss latency
system.cpu0.dcache.demand_avg_miss_latency::switch_cpus_10.data 11985.061631                       # average overall miss latency
system.cpu0.dcache.demand_avg_miss_latency::total 11921.965220                       # average overall miss latency
system.cpu0.dcache.overall_avg_miss_latency::switch_cpus_10.data 11815.218123                       # average overall miss latency
system.cpu0.dcache.overall_avg_miss_latency::total 11753.892777                       # average overall miss latency
system.cpu0.dcache.blocked_cycles::no_mshrs            0                       # number of cycles access was blocked
system.cpu0.dcache.blocked_cycles::no_targets            0                       # number of cycles access was blocked
system.cpu0.dcache.blocked::no_mshrs                0                       # number of cycles access was blocked
system.cpu0.dcache.blocked::no_targets              0                       # number of cycles access was blocked
system.cpu0.dcache.avg_blocked_cycles::no_mshrs          nan                       # average number of cycles each access was blocked
system.cpu0.dcache.avg_blocked_cycles::no_targets          nan                       # average number of cycles each access was blocked
system.cpu0.dcache.writebacks::writebacks         8345                       # number of writebacks
system.cpu0.dcache.writebacks::total             8345                       # number of writebacks
system.cpu0.dcache.WriteReq_mshr_hits::switch_cpus_10.data            5                       # number of WriteReq MSHR hits
system.cpu0.dcache.WriteReq_mshr_hits::total            5                       # number of WriteReq MSHR hits
system.cpu0.dcache.demand_mshr_hits::switch_cpus_10.data            5                       # number of demand (read+write) MSHR hits
system.cpu0.dcache.demand_mshr_hits::total            5                       # number of demand (read+write) MSHR hits
system.cpu0.dcache.overall_mshr_hits::switch_cpus_10.data            5                       # number of overall MSHR hits
system.cpu0.dcache.overall_mshr_hits::total            5                       # number of overall MSHR hits
system.cpu0.dcache.ReadReq_mshr_misses::switch_cpus_10.data        21231                       # number of ReadReq MSHR misses
system.cpu0.dcache.ReadReq_mshr_misses::total        21231                       # number of ReadReq MSHR misses
system.cpu0.dcache.WriteReq_mshr_misses::switch_cpus_10.data         8051                       # number of WriteReq MSHR misses
system.cpu0.dcache.WriteReq_mshr_misses::total         8051                       # number of WriteReq MSHR misses
system.cpu0.dcache.SoftPFReq_mshr_misses::switch_cpus_10.data          421                       # number of SoftPFReq MSHR misses
system.cpu0.dcache.SoftPFReq_mshr_misses::total          421                       # number of SoftPFReq MSHR misses
system.cpu0.dcache.demand_mshr_misses::switch_cpus_10.data        29282                       # number of demand (read+write) MSHR misses
system.cpu0.dcache.demand_mshr_misses::total        29282                       # number of demand (read+write) MSHR misses
system.cpu0.dcache.overall_mshr_misses::switch_cpus_10.data        29703                       # number of overall MSHR misses
system.cpu0.dcache.overall_mshr_misses::total        29703                       # number of overall MSHR misses
system.cpu0.dcache.ReadReq_mshr_uncacheable::switch_cpus_10.data           23                       # number of ReadReq MSHR uncacheable
system.cpu0.dcache.ReadReq_mshr_uncacheable::total           23                       # number of ReadReq MSHR uncacheable
system.cpu0.dcache.WriteReq_mshr_uncacheable::switch_cpus_10.data          471                       # number of WriteReq MSHR uncacheable
system.cpu0.dcache.WriteReq_mshr_uncacheable::total          471                       # number of WriteReq MSHR uncacheable
system.cpu0.dcache.overall_mshr_uncacheable_misses::switch_cpus_10.data          494                       # number of overall MSHR uncacheable misses
system.cpu0.dcache.overall_mshr_uncacheable_misses::total          494                       # number of overall MSHR uncacheable misses
system.cpu0.dcache.ReadReq_mshr_miss_latency::switch_cpus_10.data    220562000                       # number of ReadReq MSHR miss cycles
system.cpu0.dcache.ReadReq_mshr_miss_latency::total    220562000                       # number of ReadReq MSHR miss cycles
system.cpu0.dcache.WriteReq_mshr_miss_latency::switch_cpus_10.data    100518000                       # number of WriteReq MSHR miss cycles
system.cpu0.dcache.WriteReq_mshr_miss_latency::total    100518000                       # number of WriteReq MSHR miss cycles
system.cpu0.dcache.SoftPFReq_mshr_miss_latency::switch_cpus_10.data      4091000                       # number of SoftPFReq MSHR miss cycles
system.cpu0.dcache.SoftPFReq_mshr_miss_latency::total      4091000                       # number of SoftPFReq MSHR miss cycles
system.cpu0.dcache.demand_mshr_miss_latency::switch_cpus_10.data    321080000                       # number of demand (read+write) MSHR miss cycles
system.cpu0.dcache.demand_mshr_miss_latency::total    321080000                       # number of demand (read+write) MSHR miss cycles
system.cpu0.dcache.overall_mshr_miss_latency::switch_cpus_10.data    325171000                       # number of overall MSHR miss cycles
system.cpu0.dcache.overall_mshr_miss_latency::total    325171000                       # number of overall MSHR miss cycles
system.cpu0.dcache.ReadReq_mshr_uncacheable_latency::switch_cpus_10.data      3789500                       # number of ReadReq MSHR uncacheable cycles
system.cpu0.dcache.ReadReq_mshr_uncacheable_latency::total      3789500                       # number of ReadReq MSHR uncacheable cycles
system.cpu0.dcache.overall_mshr_uncacheable_latency::switch_cpus_10.data      3789500                       # number of overall MSHR uncacheable cycles
system.cpu0.dcache.overall_mshr_uncacheable_latency::total      3789500                       # number of overall MSHR uncacheable cycles
system.cpu0.dcache.ReadReq_mshr_miss_rate::switch_cpus_10.data     0.031056                       # mshr miss rate for ReadReq accesses
system.cpu0.dcache.ReadReq_mshr_miss_rate::total     0.030793                       # mshr miss rate for ReadReq accesses
system.cpu0.dcache.WriteReq_mshr_miss_rate::switch_cpus_10.data     0.019270                       # mshr miss rate for WriteReq accesses
system.cpu0.dcache.WriteReq_mshr_miss_rate::total     0.019122                       # mshr miss rate for WriteReq accesses
system.cpu0.dcache.SoftPFReq_mshr_miss_rate::switch_cpus_10.data     0.782528                       # mshr miss rate for SoftPFReq accesses
system.cpu0.dcache.SoftPFReq_mshr_miss_rate::total     0.773897                       # mshr miss rate for SoftPFReq accesses
system.cpu0.dcache.demand_mshr_miss_rate::switch_cpus_10.data     0.026586                       # mshr miss rate for demand accesses
system.cpu0.dcache.demand_mshr_miss_rate::total     0.026369                       # mshr miss rate for demand accesses
system.cpu0.dcache.overall_mshr_miss_rate::switch_cpus_10.data     0.026955                       # mshr miss rate for overall accesses
system.cpu0.dcache.overall_mshr_miss_rate::total     0.026735                       # mshr miss rate for overall accesses
system.cpu0.dcache.ReadReq_avg_mshr_miss_latency::switch_cpus_10.data 10388.676935                       # average ReadReq mshr miss latency
system.cpu0.dcache.ReadReq_avg_mshr_miss_latency::total 10388.676935                       # average ReadReq mshr miss latency
system.cpu0.dcache.WriteReq_avg_mshr_miss_latency::switch_cpus_10.data 12485.157123                       # average WriteReq mshr miss latency
system.cpu0.dcache.WriteReq_avg_mshr_miss_latency::total 12485.157123                       # average WriteReq mshr miss latency
system.cpu0.dcache.SoftPFReq_avg_mshr_miss_latency::switch_cpus_10.data  9717.339667                       # average SoftPFReq mshr miss latency
system.cpu0.dcache.SoftPFReq_avg_mshr_miss_latency::total  9717.339667                       # average SoftPFReq mshr miss latency
system.cpu0.dcache.demand_avg_mshr_miss_latency::switch_cpus_10.data 10965.098012                       # average overall mshr miss latency
system.cpu0.dcache.demand_avg_mshr_miss_latency::total 10965.098012                       # average overall mshr miss latency
system.cpu0.dcache.overall_avg_mshr_miss_latency::switch_cpus_10.data 10947.412719                       # average overall mshr miss latency
system.cpu0.dcache.overall_avg_mshr_miss_latency::total 10947.412719                       # average overall mshr miss latency
system.cpu0.dcache.ReadReq_avg_mshr_uncacheable_latency::switch_cpus_10.data 164760.869565                       # average ReadReq mshr uncacheable latency
system.cpu0.dcache.ReadReq_avg_mshr_uncacheable_latency::total 164760.869565                       # average ReadReq mshr uncacheable latency
system.cpu0.dcache.overall_avg_mshr_uncacheable_latency::switch_cpus_10.data  7671.052632                       # average overall mshr uncacheable latency
system.cpu0.dcache.overall_avg_mshr_uncacheable_latency::total  7671.052632                       # average overall mshr uncacheable latency
[...]
system.tol2bus.pkt_count_system.cpu4.icache.mem_side::system.l2.cpu_side        38433                       # Packet count per connected master and slave (bytes)
system.tol2bus.pkt_count_system.cpu4.dcache.mem_side::system.l2.cpu_side        52815                       # Packet count per connected master and slave (bytes)
system.tol2bus.pkt_count_system.cpu4.itb_walker_cache.mem_side::system.l2.cpu_side           39                       # Packet count per connected master and slave (bytes)
system.tol2bus.pkt_count_system.cpu4.dtb_walker_cache.mem_side::system.l2.cpu_side          261                       # Packet count per connected master and slave (bytes)
system.tol2bus.pkt_count_system.cpu5.icache.mem_side::system.l2.cpu_side        36444                       # Packet count per connected master and slave (bytes)
system.tol2bus.pkt_count_system.cpu5.dcache.mem_side::system.l2.cpu_side        48655                       # Packet count per connected master and slave (bytes)
system.tol2bus.pkt_count_system.cpu5.itb_walker_cache.mem_side::system.l2.cpu_side          110                       # Packet count per connected master and slave (bytes)
system.tol2bus.pkt_count_system.cpu5.dtb_walker_cache.mem_side::system.l2.cpu_side          296                       # Packet count per connected master and slave (bytes)
system.tol2bus.pkt_count_system.cpu6.icache.mem_side::system.l2.cpu_side        21624                       # Packet count per connected master and slave (bytes)
system.tol2bus.pkt_count_system.cpu6.dcache.mem_side::system.l2.cpu_side        13085                       # Packet count per connected master and slave (bytes)
system.tol2bus.pkt_count_system.cpu6.itb_walker_cache.mem_side::system.l2.cpu_side           85                       # Packet count per connected master and slave (bytes)
system.tol2bus.pkt_count_system.cpu6.dtb_walker_cache.mem_side::system.l2.cpu_side          238                       # Packet count per connected master and slave (bytes)
system.tol2bus.pkt_count_system.cpu7.icache.mem_side::system.l2.cpu_side        34059                       # Packet count per connected master and slave (bytes)
system.tol2bus.pkt_count_system.cpu7.dcache.mem_side::system.l2.cpu_side        49137                       # Packet count per connected master and slave (bytes)
system.tol2bus.pkt_count_system.cpu7.itb_walker_cache.mem_side::system.l2.cpu_side           30                       # Packet count per connected master and slave (bytes)
system.tol2bus.pkt_count_system.cpu7.dtb_walker_cache.mem_side::system.l2.cpu_side          224                       # Packet count per connected master and slave (bytes)
system.tol2bus.pkt_count::total                693531                       # Packet count per connected master and slave (bytes)
system.tol2bus.pkt_size_system.cpu0.icache.mem_side::system.l2.cpu_side      2546560                       # Cumulative packet size per connected master and slave (bytes)
system.tol2bus.pkt_size_system.cpu0.dcache.mem_side::system.l2.cpu_side      1294212                       # Cumulative packet size per connected master and slave (bytes)
system.tol2bus.pkt_size_system.cpu0.itb_walker_cache.mem_side::system.l2.cpu_side        10560                       # Cumulative packet size per connected master and slave (bytes)
system.tol2bus.pkt_size_system.cpu0.dtb_walker_cache.mem_side::system.l2.cpu_side        12928                       # Cumulative packet size per connected master and slave (bytes)
system.tol2bus.pkt_size_system.cpu1.icache.mem_side::system.l2.cpu_side      1595776                       # Cumulative packet size per connected master and slave (bytes)
system.tol2bus.pkt_size_system.cpu1.dcache.mem_side::system.l2.cpu_side      1013924                       # Cumulative packet size per connected master and slave (bytes)
system.tol2bus.pkt_size_system.cpu1.itb_walker_cache.mem_side::system.l2.cpu_side         7936                       # Cumulative packet size per connected master and slave (bytes)
system.tol2bus.pkt_size_system.cpu1.dtb_walker_cache.mem_side::system.l2.cpu_side        13376                       # Cumulative packet size per connected master and slave (bytes)
system.tol2bus.pkt_size_system.cpu2.icache.mem_side::system.l2.cpu_side      1564160                       # Cumulative packet size per connected master and slave (bytes)
system.tol2bus.pkt_size_system.cpu2.dcache.mem_side::system.l2.cpu_side       909784                       # Cumulative packet size per connected master and slave (bytes)
system.tol2bus.pkt_size_system.cpu2.itb_walker_cache.mem_side::system.l2.cpu_side         3264                       # Cumulative packet size per connected master and slave (bytes)
system.tol2bus.pkt_size_system.cpu2.dtb_walker_cache.mem_side::system.l2.cpu_side         6912                       # Cumulative packet size per connected master and slave (bytes)
system.tol2bus.pkt_size_system.cpu3.icache.mem_side::system.l2.cpu_side      1526272                       # Cumulative packet size per connected master and slave (bytes)
system.tol2bus.pkt_size_system.cpu3.dcache.mem_side::system.l2.cpu_side       954764                       # Cumulative packet size per connected master and slave (bytes)
system.tol2bus.pkt_size_system.cpu3.itb_walker_cache.mem_side::system.l2.cpu_side          768                       # Cumulative packet size per connected master and slave (bytes)
system.tol2bus.pkt_size_system.cpu3.dtb_walker_cache.mem_side::system.l2.cpu_side         6016                       # Cumulative packet size per connected master and slave (bytes)
system.tol2bus.pkt_size_system.cpu4.icache.mem_side::system.l2.cpu_side      1639808                       # Cumulative packet size per connected master and slave (bytes)
system.tol2bus.pkt_size_system.cpu4.dcache.mem_side::system.l2.cpu_side       891630                       # Cumulative packet size per connected master and slave (bytes)
system.tol2bus.pkt_size_system.cpu4.itb_walker_cache.mem_side::system.l2.cpu_side          704                       # Cumulative packet size per connected master and slave (bytes)
system.tol2bus.pkt_size_system.cpu4.dtb_walker_cache.mem_side::system.l2.cpu_side         5440                       # Cumulative packet size per connected master and slave (bytes)
system.tol2bus.pkt_size_system.cpu5.icache.mem_side::system.l2.cpu_side      1554944                       # Cumulative packet size per connected master and slave (bytes)
system.tol2bus.pkt_size_system.cpu5.dcache.mem_side::system.l2.cpu_side       850166                       # Cumulative packet size per connected master and slave (bytes)
system.tol2bus.pkt_size_system.cpu5.itb_walker_cache.mem_side::system.l2.cpu_side         1536                       # Cumulative packet size per connected master and slave (bytes)
system.tol2bus.pkt_size_system.cpu5.dtb_walker_cache.mem_side::system.l2.cpu_side         5248                       # Cumulative packet size per connected master and slave (bytes)
system.tol2bus.pkt_size_system.cpu6.icache.mem_side::system.l2.cpu_side       922624                       # Cumulative packet size per connected master and slave (bytes)
system.tol2bus.pkt_size_system.cpu6.dcache.mem_side::system.l2.cpu_side       189350                       # Cumulative packet size per connected master and slave (bytes)
system.tol2bus.pkt_size_system.cpu6.itb_walker_cache.mem_side::system.l2.cpu_side          832                       # Cumulative packet size per connected master and slave (bytes)
system.tol2bus.pkt_size_system.cpu6.dtb_walker_cache.mem_side::system.l2.cpu_side         4672                       # Cumulative packet size per connected master and slave (bytes)
system.tol2bus.pkt_size_system.cpu7.icache.mem_side::system.l2.cpu_side      1453184                       # Cumulative packet size per connected master and slave (bytes)
system.tol2bus.pkt_size_system.cpu7.dcache.mem_side::system.l2.cpu_side       841016                       # Cumulative packet size per connected master and slave (bytes)
system.tol2bus.pkt_size_system.cpu7.itb_walker_cache.mem_side::system.l2.cpu_side          128                       # Cumulative packet size per connected master and slave (bytes)
system.tol2bus.pkt_size_system.cpu7.dtb_walker_cache.mem_side::system.l2.cpu_side         4608                       # Cumulative packet size per connected master and slave (bytes)
system.tol2bus.pkt_size::total               19833102                       # Cumulative packet size per connected master and slave (bytes)
system.tol2bus.snoops                          122405                       # Total snoops (count)
system.tol2bus.snoopTraffic                   6645568                       # Total snoop traffic (bytes)
system.tol2bus.snoop_fanout::samples           305493                       # Request fanout histogram
system.tol2bus.snoop_fanout::mean            2.771042                       # Request fanout histogram
system.tol2bus.snoop_fanout::stdev           2.814843                       # Request fanout histogram
system.tol2bus.snoop_fanout::underflows             0      0.00%      0.00% # Request fanout histogram
system.tol2bus.snoop_fanout::0                  75266     24.64%     24.64% # Request fanout histogram
system.tol2bus.snoop_fanout::1                  87215     28.55%     53.19% # Request fanout histogram
system.tol2bus.snoop_fanout::2                  32053     10.49%     63.68% # Request fanout histogram
system.tol2bus.snoop_fanout::3                   7964      2.61%     66.29% # Request fanout histogram
system.tol2bus.snoop_fanout::4                   5950      1.95%     68.23% # Request fanout histogram
system.tol2bus.snoop_fanout::5                   4464      1.46%     69.69% # Request fanout histogram
system.tol2bus.snoop_fanout::6                  26267      8.60%     78.29% # Request fanout histogram
system.tol2bus.snoop_fanout::7                  65783     21.53%     99.83% # Request fanout histogram
system.tol2bus.snoop_fanout::8                     44      0.01%     99.84% # Request fanout histogram
system.tol2bus.snoop_fanout::9                     37      0.01%     99.85% # Request fanout histogram
system.tol2bus.snoop_fanout::10                    43      0.01%     99.87% # Request fanout histogram
system.tol2bus.snoop_fanout::11                    65      0.02%     99.89% # Request fanout histogram
system.tol2bus.snoop_fanout::12                    82      0.03%     99.91% # Request fanout histogram
system.tol2bus.snoop_fanout::13                    75      0.02%     99.94% # Request fanout histogram
system.tol2bus.snoop_fanout::14                    38      0.01%     99.95% # Request fanout histogram
system.tol2bus.snoop_fanout::15                     2      0.00%     99.95% # Request fanout histogram
system.tol2bus.snoop_fanout::16                    14      0.00%     99.96% # Request fanout histogram
system.tol2bus.snoop_fanout::17                     6      0.00%     99.96% # Request fanout histogram
system.tol2bus.snoop_fanout::18                    12      0.00%     99.96% # Request fanout histogram
system.tol2bus.snoop_fanout::19                    43      0.01%     99.98% # Request fanout histogram
system.tol2bus.snoop_fanout::20                    62      0.02%    100.00% # Request fanout histogram
system.tol2bus.snoop_fanout::21                     8      0.00%    100.00% # Request fanout histogram
system.tol2bus.snoop_fanout::22                     0      0.00%    100.00% # Request fanout histogram
system.tol2bus.snoop_fanout::23                     0      0.00%    100.00% # Request fanout histogram
system.tol2bus.snoop_fanout::24                     0      0.00%    100.00% # Request fanout histogram
system.tol2bus.snoop_fanout::25                     0      0.00%    100.00% # Request fanout histogram
system.tol2bus.snoop_fanout::26                     0      0.00%    100.00% # Request fanout histogram
system.tol2bus.snoop_fanout::27                     0      0.00%    100.00% # Request fanout histogram
system.tol2bus.snoop_fanout::28                     0      0.00%    100.00% # Request fanout histogram
system.tol2bus.snoop_fanout::29                     0      0.00%    100.00% # Request fanout histogram
system.tol2bus.snoop_fanout::30                     0      0.00%    100.00% # Request fanout histogram
system.tol2bus.snoop_fanout::31                     0      0.00%    100.00% # Request fanout histogram
system.tol2bus.snoop_fanout::32                     0      0.00%    100.00% # Request fanout histogram
system.tol2bus.snoop_fanout::overflows              0      0.00%    100.00% # Request fanout histogram
system.tol2bus.snoop_fanout::min_value              0                       # Request fanout histogram
system.tol2bus.snoop_fanout::max_value             21                       # Request fanout histogram
system.tol2bus.snoop_fanout::total             305493                       # Request fanout histogram
system.tol2bus.reqLayer0.occupancy          397918500                       # Layer occupancy (ticks)
system.tol2bus.reqLayer0.utilization              0.0                       # Layer utilization (%)
system.tol2bus.snoopLayer0.occupancy           272970                       # Layer occupancy (ticks)
system.tol2bus.snoopLayer0.utilization            0.0                       # Layer utilization (%)
system.tol2bus.respLayer0.occupancy          29545494                       # Layer occupancy (ticks)
system.tol2bus.respLayer0.utilization             0.0                       # Layer utilization (%)
system.tol2bus.respLayer1.occupancy          39580497                       # Layer occupancy (ticks)
system.tol2bus.respLayer1.utilization             0.0                       # Layer utilization (%)
system.tol2bus.respLayer2.occupancy            261000                       # Layer occupancy (ticks)
system.tol2bus.respLayer2.utilization             0.0                       # Layer utilization (%)
system.tol2bus.respLayer3.occupancy            336000                       # Layer occupancy (ticks)
system.tol2bus.respLayer3.utilization             0.0                       # Layer utilization (%)
system.tol2bus.respLayer4.occupancy          18703494                       # Layer occupancy (ticks)
system.tol2bus.respLayer4.utilization             0.0                       # Layer utilization (%)
system.tol2bus.respLayer5.occupancy          35208000                       # Layer occupancy (ticks)
system.tol2bus.respLayer5.utilization             0.0                       # Layer utilization (%)
system.tol2bus.respLayer6.occupancy            349500                       # Layer occupancy (ticks)
system.tol2bus.respLayer6.utilization             0.0                       # Layer utilization (%)
system.tol2bus.respLayer7.occupancy            384000                       # Layer occupancy (ticks)
system.tol2bus.respLayer7.utilization             0.0                       # Layer utilization (%)
system.tol2bus.respLayer8.occupancy          18330000                       # Layer occupancy (ticks)
system.tol2bus.respLayer8.utilization             0.0                       # Layer utilization (%)
system.tol2bus.respLayer9.occupancy          37027999                       # Layer occupancy (ticks)
system.tol2bus.respLayer9.utilization             0.0                       # Layer utilization (%)
system.tol2bus.respLayer10.occupancy           148500                       # Layer occupancy (ticks)
system.tol2bus.respLayer10.utilization            0.0                       # Layer utilization (%)
system.tol2bus.respLayer11.occupancy           207000                       # Layer occupancy (ticks)
system.tol2bus.respLayer11.utilization            0.0                       # Layer utilization (%)
system.tol2bus.respLayer12.occupancy         17886499                       # Layer occupancy (ticks)
system.tol2bus.respLayer12.utilization            0.0                       # Layer utilization (%)
system.tol2bus.respLayer13.occupancy         38083499                       # Layer occupancy (ticks)
system.tol2bus.respLayer13.utilization            0.0                       # Layer utilization (%)
system.tol2bus.respLayer14.occupancy            43500                       # Layer occupancy (ticks)
system.tol2bus.respLayer14.utilization            0.0                       # Layer utilization (%)
system.tol2bus.respLayer15.occupancy           186000                       # Layer occupancy (ticks)
system.tol2bus.respLayer15.utilization            0.0                       # Layer utilization (%)
system.tol2bus.respLayer16.occupancy         19217997                       # Layer occupancy (ticks)
system.tol2bus.respLayer16.utilization            0.0                       # Layer utilization (%)
system.tol2bus.respLayer17.occupancy         37021998                       # Layer occupancy (ticks)
system.tol2bus.respLayer17.utilization            0.0                       # Layer utilization (%)
system.tol2bus.respLayer18.occupancy            27000                       # Layer occupancy (ticks)
system.tol2bus.respLayer18.utilization            0.0                       # Layer utilization (%)
system.tol2bus.respLayer19.occupancy           151500                       # Layer occupancy (ticks)
system.tol2bus.respLayer19.utilization            0.0                       # Layer utilization (%)
system.tol2bus.respLayer20.occupancy         18223497                       # Layer occupancy (ticks)
system.tol2bus.respLayer20.utilization            0.0                       # Layer utilization (%)
system.tol2bus.respLayer21.occupancy         33694998                       # Layer occupancy (ticks)
system.tol2bus.respLayer21.utilization            0.0                       # Layer utilization (%)
system.tol2bus.respLayer22.occupancy            75000                       # Layer occupancy (ticks)
system.tol2bus.respLayer22.utilization            0.0                       # Layer utilization (%)
system.tol2bus.respLayer23.occupancy           177000                       # Layer occupancy (ticks)
system.tol2bus.respLayer23.utilization            0.0                       # Layer utilization (%)
system.tol2bus.respLayer24.occupancy         10812998                       # Layer occupancy (ticks)
system.tol2bus.respLayer24.utilization            0.0                       # Layer utilization (%)
system.tol2bus.respLayer25.occupancy         10364998                       # Layer occupancy (ticks)
system.tol2bus.respLayer25.utilization            0.0                       # Layer utilization (%)
system.tol2bus.respLayer26.occupancy            57000                       # Layer occupancy (ticks)
system.tol2bus.respLayer26.utilization            0.0                       # Layer utilization (%)
system.tol2bus.respLayer27.occupancy           135000                       # Layer occupancy (ticks)
system.tol2bus.respLayer27.utilization            0.0                       # Layer utilization (%)
system.tol2bus.respLayer28.occupancy         17029999                       # Layer occupancy (ticks)
system.tol2bus.respLayer28.utilization            0.0                       # Layer utilization (%)
system.tol2bus.respLayer29.occupancy         34414500                       # Layer occupancy (ticks)
system.tol2bus.respLayer29.utilization            0.0                       # Layer utilization (%)
system.tol2bus.respLayer30.occupancy            27000                       # Layer occupancy (ticks)
system.tol2bus.respLayer30.utilization            0.0                       # Layer utilization (%)
system.tol2bus.respLayer31.occupancy           129000                       # Layer occupancy (ticks)
system.tol2bus.respLayer31.utilization            0.0                       # Layer utilization (%)

---------- End Simulation Statistics   ----------
