
---------- Begin Simulation Statistics ----------
sim_seconds                                  1.670356                       # Number of seconds simulated
sim_ticks                                1670355905000                       # Number of ticks simulated
final_tick                               6470529662500                       # Number of ticks from beginning of simulation (restored from checkpoints and never reset)
sim_freq                                 1000000000000                       # Frequency of simulated ticks
host_inst_rate                                1349433                       # Simulator instruction rate (inst/s)
host_op_rate                                  3069944                       # Simulator op (including micro ops) rate (op/s)
host_tick_rate                             1495503303                       # Simulator tick rate (ticks/s)
host_mem_usage                                2298704                       # Number of bytes of host memory used
host_seconds                                  1116.92                       # Real time elapsed on the host
sim_insts                                  1507207645                       # Number of instructions simulated
sim_ops                                    3428878114                       # Number of ops (including micro ops) simulated
system.voltage_domain.voltage                       1                       # Voltage in Volts
system.clk_domain.clock                          1000                       # Clock period in ticks
system.mem_ctrls.pwrStateResidencyTicks::UNDEFINED 6470529662500                       # Cumulative time (in ticks) in various power states
system.mem_ctrls.bytes_read::l2.prefetcher       841216                       # Number of bytes read from this memory
system.mem_ctrls.bytes_read::switch_cpus0.inst           64                       # Number of bytes read from this memory
system.mem_ctrls.bytes_read::switch_cpus0.data           64                       # Number of bytes read from this memory
system.mem_ctrls.bytes_read::switch_cpus_10.inst          832                       # Number of bytes read from this memory
system.mem_ctrls.bytes_read::switch_cpus_10.data        16128                       # Number of bytes read from this memory
system.mem_ctrls.bytes_read::switch_cpus_11.inst         2432                       # Number of bytes read from this memory
system.mem_ctrls.bytes_read::switch_cpus_11.data        22912                       # Number of bytes read from this memory
system.mem_ctrls.bytes_read::switch_cpus_12.inst          256                       # Number of bytes read from this memory
system.mem_ctrls.bytes_read::switch_cpus_12.data        11072                       # Number of bytes read from this memory
system.mem_ctrls.bytes_read::switch_cpus_13.dtb.walker           64                       # Number of bytes read from this memory
system.mem_ctrls.bytes_read::switch_cpus_13.inst          384                       # Number of bytes read from this memory
system.mem_ctrls.bytes_read::switch_cpus_13.data        11392                       # Number of bytes read from this memory
system.mem_ctrls.bytes_read::switch_cpus_14.inst         1152                       # Number of bytes read from this memory
system.mem_ctrls.bytes_read::switch_cpus_14.data        10944                       # Number of bytes read from this memory
system.mem_ctrls.bytes_read::switch_cpus_15.inst           64                       # Number of bytes read from this memory
system.mem_ctrls.bytes_read::switch_cpus_15.data        12544                       # Number of bytes read from this memory
system.mem_ctrls.bytes_read::switch_cpus_16.inst          320                       # Number of bytes read from this memory
system.mem_ctrls.bytes_read::switch_cpus_16.data         1536                       # Number of bytes read from this memory
system.mem_ctrls.bytes_read::switch_cpus_17.inst          384                       # Number of bytes read from this memory
system.mem_ctrls.bytes_read::switch_cpus_17.data        20352                       # Number of bytes read from this memory
system.mem_ctrls.bytes_read::total             954112                       # Number of bytes read from this memory
system.mem_ctrls.bytes_inst_read::switch_cpus0.inst           64                       # Number of instructions bytes read from this memory
system.mem_ctrls.bytes_inst_read::switch_cpus_10.inst          832                       # Number of instructions bytes read from this memory
system.mem_ctrls.bytes_inst_read::switch_cpus_11.inst         2432                       # Number of instructions bytes read from this memory
system.mem_ctrls.bytes_inst_read::switch_cpus_12.inst          256                       # Number of instructions bytes read from this memory
system.mem_ctrls.bytes_inst_read::switch_cpus_13.inst          384                       # Number of instructions bytes read from this memory
system.mem_ctrls.bytes_inst_read::switch_cpus_14.inst         1152                       # Number of instructions bytes read from this memory
system.mem_ctrls.bytes_inst_read::switch_cpus_15.inst           64                       # Number of instructions bytes read from this memory
system.mem_ctrls.bytes_inst_read::switch_cpus_16.inst          320                       # Number of instructions bytes read from this memory
system.mem_ctrls.bytes_inst_read::switch_cpus_17.inst          384                       # Number of instructions bytes read from this memory
system.mem_ctrls.bytes_inst_read::total          5888                       # Number of instructions bytes read from this memory
system.mem_ctrls.bytes_written::writebacks      1078016                       # Number of bytes written to this memory
system.mem_ctrls.bytes_written::total         1078016                       # Number of bytes written to this memory
system.mem_ctrls.num_reads::l2.prefetcher        13144                       # Number of read requests responded to by this memory
system.mem_ctrls.num_reads::switch_cpus0.inst            1                       # Number of read requests responded to by this memory
system.mem_ctrls.num_reads::switch_cpus0.data            1                       # Number of read requests responded to by this memory
system.mem_ctrls.num_reads::switch_cpus_10.inst           13                       # Number of read requests responded to by this memory
system.mem_ctrls.num_reads::switch_cpus_10.data          252                       # Number of read requests responded to by this memory
system.mem_ctrls.num_reads::switch_cpus_11.inst           38                       # Number of read requests responded to by this memory
system.mem_ctrls.num_reads::switch_cpus_11.data          358                       # Number of read requests responded to by this memory
system.mem_ctrls.num_reads::switch_cpus_12.inst            4                       # Number of read requests responded to by this memory
system.mem_ctrls.num_reads::switch_cpus_12.data          173                       # Number of read requests responded to by this memory
system.mem_ctrls.num_reads::switch_cpus_13.dtb.walker            1                       # Number of read requests responded to by this memory
system.mem_ctrls.num_reads::switch_cpus_13.inst            6                       # Number of read requests responded to by this memory
system.mem_ctrls.num_reads::switch_cpus_13.data          178                       # Number of read requests responded to by this memory
system.mem_ctrls.num_reads::switch_cpus_14.inst           18                       # Number of read requests responded to by this memory
system.mem_ctrls.num_reads::switch_cpus_14.data          171                       # Number of read requests responded to by this memory
system.mem_ctrls.num_reads::switch_cpus_15.inst            1                       # Number of read requests responded to by this memory
system.mem_ctrls.num_reads::switch_cpus_15.data          196                       # Number of read requests responded to by this memory
system.mem_ctrls.num_reads::switch_cpus_16.inst            5                       # Number of read requests responded to by this memory
system.mem_ctrls.num_reads::switch_cpus_16.data           24                       # Number of read requests responded to by this memory
system.mem_ctrls.num_reads::switch_cpus_17.inst            6                       # Number of read requests responded to by this memory
system.mem_ctrls.num_reads::switch_cpus_17.data          318                       # Number of read requests responded to by this memory
system.mem_ctrls.num_reads::total               14908                       # Number of read requests responded to by this memory
system.mem_ctrls.num_writes::writebacks         16844                       # Number of write requests responded to by this memory
system.mem_ctrls.num_writes::total              16844                       # Number of write requests responded to by this memory
system.mem_ctrls.bw_read::l2.prefetcher        503615                       # Total read bandwidth from this memory (bytes/s)
system.mem_ctrls.bw_read::switch_cpus0.inst           38                       # Total read bandwidth from this memory (bytes/s)
system.mem_ctrls.bw_read::switch_cpus0.data           38                       # Total read bandwidth from this memory (bytes/s)
system.mem_ctrls.bw_read::switch_cpus_10.inst          498                       # Total read bandwidth from this memory (bytes/s)
system.mem_ctrls.bw_read::switch_cpus_10.data         9655                       # Total read bandwidth from this memory (bytes/s)
system.mem_ctrls.bw_read::switch_cpus_11.inst         1456                       # Total read bandwidth from this memory (bytes/s)
system.mem_ctrls.bw_read::switch_cpus_11.data        13717                       # Total read bandwidth from this memory (bytes/s)
system.mem_ctrls.bw_read::switch_cpus_12.inst          153                       # Total read bandwidth from this memory (bytes/s)
system.mem_ctrls.bw_read::switch_cpus_12.data         6629                       # Total read bandwidth from this memory (bytes/s)
system.mem_ctrls.bw_read::switch_cpus_13.dtb.walker           38                       # Total read bandwidth from this memory (bytes/s)
system.mem_ctrls.bw_read::switch_cpus_13.inst          230                       # Total read bandwidth from this memory (bytes/s)
system.mem_ctrls.bw_read::switch_cpus_13.data         6820                       # Total read bandwidth from this memory (bytes/s)
system.mem_ctrls.bw_read::switch_cpus_14.inst          690                       # Total read bandwidth from this memory (bytes/s)
system.mem_ctrls.bw_read::switch_cpus_14.data         6552                       # Total read bandwidth from this memory (bytes/s)
system.mem_ctrls.bw_read::switch_cpus_15.inst           38                       # Total read bandwidth from this memory (bytes/s)
system.mem_ctrls.bw_read::switch_cpus_15.data         7510                       # Total read bandwidth from this memory (bytes/s)
system.mem_ctrls.bw_read::switch_cpus_16.inst          192                       # Total read bandwidth from this memory (bytes/s)
system.mem_ctrls.bw_read::switch_cpus_16.data          920                       # Total read bandwidth from this memory (bytes/s)
system.mem_ctrls.bw_read::switch_cpus_17.inst          230                       # Total read bandwidth from this memory (bytes/s)
system.mem_ctrls.bw_read::switch_cpus_17.data        12184                       # Total read bandwidth from this memory (bytes/s)
system.mem_ctrls.bw_read::total                571203                       # Total read bandwidth from this memory (bytes/s)
system.mem_ctrls.bw_inst_read::switch_cpus0.inst           38                       # Instruction read bandwidth from this memory (bytes/s)
system.mem_ctrls.bw_inst_read::switch_cpus_10.inst          498                       # Instruction read bandwidth from this memory (bytes/s)
system.mem_ctrls.bw_inst_read::switch_cpus_11.inst         1456                       # Instruction read bandwidth from this memory (bytes/s)
system.mem_ctrls.bw_inst_read::switch_cpus_12.inst          153                       # Instruction read bandwidth from this memory (bytes/s)
system.mem_ctrls.bw_inst_read::switch_cpus_13.inst          230                       # Instruction read bandwidth from this memory (bytes/s)
system.mem_ctrls.bw_inst_read::switch_cpus_14.inst          690                       # Instruction read bandwidth from this memory (bytes/s)
system.mem_ctrls.bw_inst_read::switch_cpus_15.inst           38                       # Instruction read bandwidth from this memory (bytes/s)
system.mem_ctrls.bw_inst_read::switch_cpus_16.inst          192                       # Instruction read bandwidth from this memory (bytes/s)
system.mem_ctrls.bw_inst_read::switch_cpus_17.inst          230                       # Instruction read bandwidth from this memory (bytes/s)
system.mem_ctrls.bw_inst_read::total             3525                       # Instruction read bandwidth from this memory (bytes/s)
system.mem_ctrls.bw_write::writebacks          645381                       # Write bandwidth from this memory (bytes/s)
system.mem_ctrls.bw_write::total               645381                       # Write bandwidth from this memory (bytes/s)
system.mem_ctrls.bw_total::writebacks          645381                       # Total bandwidth to/from this memory (bytes/s)
system.mem_ctrls.bw_total::l2.prefetcher       503615                       # Total bandwidth to/from this memory (bytes/s)
system.mem_ctrls.bw_total::switch_cpus0.inst           38                       # Total bandwidth to/from this memory (bytes/s)
system.mem_ctrls.bw_total::switch_cpus0.data           38                       # Total bandwidth to/from this memory (bytes/s)
system.mem_ctrls.bw_total::switch_cpus_10.inst          498                       # Total bandwidth to/from this memory (bytes/s)
system.mem_ctrls.bw_total::switch_cpus_10.data         9655                       # Total bandwidth to/from this memory (bytes/s)
system.mem_ctrls.bw_total::switch_cpus_11.inst         1456                       # Total bandwidth to/from this memory (bytes/s)
system.mem_ctrls.bw_total::switch_cpus_11.data        13717                       # Total bandwidth to/from this memory (bytes/s)
system.mem_ctrls.bw_total::switch_cpus_12.inst          153                       # Total bandwidth to/from this memory (bytes/s)
system.mem_ctrls.bw_total::switch_cpus_12.data         6629                       # Total bandwidth to/from this memory (bytes/s)
system.mem_ctrls.bw_total::switch_cpus_13.dtb.walker           38                       # Total bandwidth to/from this memory (bytes/s)
system.mem_ctrls.bw_total::switch_cpus_13.inst          230                       # Total bandwidth to/from this memory (bytes/s)
system.mem_ctrls.bw_total::switch_cpus_13.data         6820                       # Total bandwidth to/from this memory (bytes/s)
system.mem_ctrls.bw_total::switch_cpus_14.inst          690                       # Total bandwidth to/from this memory (bytes/s)
system.mem_ctrls.bw_total::switch_cpus_14.data         6552                       # Total bandwidth to/from this memory (bytes/s)
system.mem_ctrls.bw_total::switch_cpus_15.inst           38                       # Total bandwidth to/from this memory (bytes/s)
system.mem_ctrls.bw_total::switch_cpus_15.data         7510                       # Total bandwidth to/from this memory (bytes/s)
system.mem_ctrls.bw_total::switch_cpus_16.inst          192                       # Total bandwidth to/from this memory (bytes/s)
system.mem_ctrls.bw_total::switch_cpus_16.data          920                       # Total bandwidth to/from this memory (bytes/s)
system.mem_ctrls.bw_total::switch_cpus_17.inst          230                       # Total bandwidth to/from this memory (bytes/s)
system.mem_ctrls.bw_total::switch_cpus_17.data        12184                       # Total bandwidth to/from this memory (bytes/s)
system.mem_ctrls.bw_total::total              1216584                       # Total bandwidth to/from this memory (bytes/s)
system.mem_ctrls.readReqs                       14906                       # Number of read requests accepted
system.mem_ctrls.writeReqs                      16842                       # Number of write requests accepted
system.mem_ctrls.readBursts                     14906                       # Number of DRAM read bursts, including those serviced by the write queue
system.mem_ctrls.writeBursts                    16842                       # Number of DRAM write bursts, including those merged in the write queue
system.mem_ctrls.bytesReadDRAM                 949888                       # Total number of bytes read from DRAM
system.mem_ctrls.bytesReadWrQ                    4096                       # Total number of bytes read from write queue
system.mem_ctrls.bytesWritten                 1075840                       # Total number of bytes written to DRAM
system.mem_ctrls.bytesReadSys                  953984                       # Total read bytes from the system interface side
system.mem_ctrls.bytesWrittenSys              1077888                       # Total written bytes from the system interface side
system.mem_ctrls.servicedByWrQ                     64                       # Number of DRAM read bursts serviced by the write queue
system.mem_ctrls.mergedWrBursts                     0                       # Number of DRAM write bursts merged with an existing one
system.mem_ctrls.neitherReadNorWriteReqs            0                       # Number of requests that are neither read nor write
system.mem_ctrls.perBankRdBursts::0              1095                       # Per bank write bursts
system.mem_ctrls.perBankRdBursts::1               769                       # Per bank write bursts
system.mem_ctrls.perBankRdBursts::2               860                       # Per bank write bursts
system.mem_ctrls.perBankRdBursts::3               595                       # Per bank write bursts
system.mem_ctrls.perBankRdBursts::4              1211                       # Per bank write bursts
system.mem_ctrls.perBankRdBursts::5              1032                       # Per bank write bursts
system.mem_ctrls.perBankRdBursts::6               925                       # Per bank write bursts
system.mem_ctrls.perBankRdBursts::7               863                       # Per bank write bursts
system.mem_ctrls.perBankRdBursts::8               919                       # Per bank write bursts
system.mem_ctrls.perBankRdBursts::9               952                       # Per bank write bursts
system.mem_ctrls.perBankRdBursts::10              626                       # Per bank write bursts
system.mem_ctrls.perBankRdBursts::11              600                       # Per bank write bursts
system.mem_ctrls.perBankRdBursts::12             1341                       # Per bank write bursts
system.mem_ctrls.perBankRdBursts::13             1139                       # Per bank write bursts
system.mem_ctrls.perBankRdBursts::14             1107                       # Per bank write bursts
system.mem_ctrls.perBankRdBursts::15              808                       # Per bank write bursts
system.mem_ctrls.perBankWrBursts::0              1273                       # Per bank write bursts
system.mem_ctrls.perBankWrBursts::1              1108                       # Per bank write bursts
system.mem_ctrls.perBankWrBursts::2               917                       # Per bank write bursts
system.mem_ctrls.perBankWrBursts::3               786                       # Per bank write bursts
system.mem_ctrls.perBankWrBursts::4              1174                       # Per bank write bursts
system.mem_ctrls.perBankWrBursts::5              1027                       # Per bank write bursts
system.mem_ctrls.perBankWrBursts::6               991                       # Per bank write bursts
system.mem_ctrls.perBankWrBursts::7              1049                       # Per bank write bursts
system.mem_ctrls.perBankWrBursts::8               989                       # Per bank write bursts
system.mem_ctrls.perBankWrBursts::9              1170                       # Per bank write bursts
system.mem_ctrls.perBankWrBursts::10              806                       # Per bank write bursts
system.mem_ctrls.perBankWrBursts::11              856                       # Per bank write bursts
system.mem_ctrls.perBankWrBursts::12             1260                       # Per bank write bursts
system.mem_ctrls.perBankWrBursts::13             1197                       # Per bank write bursts
system.mem_ctrls.perBankWrBursts::14             1280                       # Per bank write bursts
system.mem_ctrls.perBankWrBursts::15              927                       # Per bank write bursts
system.mem_ctrls.numRdRetry                         0                       # Number of times read queue was full causing retry
system.mem_ctrls.numWrRetry                         2                       # Number of times write queue was full causing retry
system.mem_ctrls.totGap                  1561997589500                       # Total gap between requests
system.mem_ctrls.readPktSize::0                     0                       # Read request sizes (log2)
system.mem_ctrls.readPktSize::1                     0                       # Read request sizes (log2)
system.mem_ctrls.readPktSize::2                     0                       # Read request sizes (log2)
system.mem_ctrls.readPktSize::3                     0                       # Read request sizes (log2)
system.mem_ctrls.readPktSize::4                     0                       # Read request sizes (log2)
system.mem_ctrls.readPktSize::5                     0                       # Read request sizes (log2)
system.mem_ctrls.readPktSize::6                 14906                       # Read request sizes (log2)
system.mem_ctrls.writePktSize::0                    0                       # Write request sizes (log2)
system.mem_ctrls.writePktSize::1                    0                       # Write request sizes (log2)
system.mem_ctrls.writePktSize::2                    0                       # Write request sizes (log2)
system.mem_ctrls.writePktSize::3                    0                       # Write request sizes (log2)
system.mem_ctrls.writePktSize::4                    0                       # Write request sizes (log2)
system.mem_ctrls.writePktSize::5                    0                       # Write request sizes (log2)
system.mem_ctrls.writePktSize::6                16842                       # Write request sizes (log2)
system.mem_ctrls.rdQLenPdf::0                    4697                       # What read queue length does an incoming req see
system.mem_ctrls.rdQLenPdf::1                    2940                       # What read queue length does an incoming req see
system.mem_ctrls.rdQLenPdf::2                    2388                       # What read queue length does an incoming req see
system.mem_ctrls.rdQLenPdf::3                    1979                       # What read queue length does an incoming req see
system.mem_ctrls.rdQLenPdf::4                    1553                       # What read queue length does an incoming req see
system.mem_ctrls.rdQLenPdf::5                     453                       # What read queue length does an incoming req see
system.mem_ctrls.rdQLenPdf::6                     300                       # What read queue length does an incoming req see
system.mem_ctrls.rdQLenPdf::7                     204                       # What read queue length does an incoming req see
system.mem_ctrls.rdQLenPdf::8                     114                       # What read queue length does an incoming req see
system.mem_ctrls.rdQLenPdf::9                      63                       # What read queue length does an incoming req see
system.mem_ctrls.rdQLenPdf::10                     49                       # What read queue length does an incoming req see
system.mem_ctrls.rdQLenPdf::11                     48                       # What read queue length does an incoming req see
system.mem_ctrls.rdQLenPdf::12                     19                       # What read queue length does an incoming req see
system.mem_ctrls.rdQLenPdf::13                     12                       # What read queue length does an incoming req see
system.mem_ctrls.rdQLenPdf::14                      7                       # What read queue length does an incoming req see
system.mem_ctrls.rdQLenPdf::15                      7                       # What read queue length does an incoming req see
system.mem_ctrls.rdQLenPdf::16                      6                       # What read queue length does an incoming req see
system.mem_ctrls.rdQLenPdf::17                      3                       # What read queue length does an incoming req see
system.mem_ctrls.rdQLenPdf::18                      0                       # What read queue length does an incoming req see
system.mem_ctrls.rdQLenPdf::19                      0                       # What read queue length does an incoming req see
system.mem_ctrls.rdQLenPdf::20                      0                       # What read queue length does an incoming req see
system.mem_ctrls.rdQLenPdf::21                      0                       # What read queue length does an incoming req see
system.mem_ctrls.rdQLenPdf::22                      0                       # What read queue length does an incoming req see
system.mem_ctrls.rdQLenPdf::23                      0                       # What read queue length does an incoming req see
system.mem_ctrls.rdQLenPdf::24                      0                       # What read queue length does an incoming req see
system.mem_ctrls.rdQLenPdf::25                      0                       # What read queue length does an incoming req see
system.mem_ctrls.rdQLenPdf::26                      0                       # What read queue length does an incoming req see
system.mem_ctrls.rdQLenPdf::27                      0                       # What read queue length does an incoming req see
system.mem_ctrls.rdQLenPdf::28                      0                       # What read queue length does an incoming req see
system.mem_ctrls.rdQLenPdf::29                      0                       # What read queue length does an incoming req see
system.mem_ctrls.rdQLenPdf::30                      0                       # What read queue length does an incoming req see
system.mem_ctrls.rdQLenPdf::31                      0                       # What read queue length does an incoming req see
system.mem_ctrls.wrQLenPdf::0                       1                       # What write queue length does an incoming req see
system.mem_ctrls.wrQLenPdf::1                       1                       # What write queue length does an incoming req see
system.mem_ctrls.wrQLenPdf::2                       1                       # What write queue length does an incoming req see
system.mem_ctrls.wrQLenPdf::3                       1                       # What write queue length does an incoming req see
system.mem_ctrls.wrQLenPdf::4                       1                       # What write queue length does an incoming req see
system.mem_ctrls.wrQLenPdf::5                       1                       # What write queue length does an incoming req see
system.mem_ctrls.wrQLenPdf::6                       1                       # What write queue length does an incoming req see
system.mem_ctrls.wrQLenPdf::7                       1                       # What write queue length does an incoming req see
system.mem_ctrls.wrQLenPdf::8                       1                       # What write queue length does an incoming req see
system.mem_ctrls.wrQLenPdf::9                       1                       # What write queue length does an incoming req see
system.mem_ctrls.wrQLenPdf::10                      1                       # What write queue length does an incoming req see
system.mem_ctrls.wrQLenPdf::11                      1                       # What write queue length does an incoming req see
system.mem_ctrls.wrQLenPdf::12                      1                       # What write queue length does an incoming req see
system.mem_ctrls.wrQLenPdf::13                      1                       # What write queue length does an incoming req see
system.mem_ctrls.wrQLenPdf::14                      1                       # What write queue length does an incoming req see
system.mem_ctrls.wrQLenPdf::15                    372                       # What write queue length does an incoming req see
system.mem_ctrls.wrQLenPdf::16                    578                       # What write queue length does an incoming req see
system.mem_ctrls.wrQLenPdf::17                    617                       # What write queue length does an incoming req see
system.mem_ctrls.wrQLenPdf::18                    689                       # What write queue length does an incoming req see
system.mem_ctrls.wrQLenPdf::19                    715                       # What write queue length does an incoming req see
system.mem_ctrls.wrQLenPdf::20                    750                       # What write queue length does an incoming req see
system.mem_ctrls.wrQLenPdf::21                    822                       # What write queue length does an incoming req see
system.mem_ctrls.wrQLenPdf::22                    931                       # What write queue length does an incoming req see
system.mem_ctrls.wrQLenPdf::23                   1142                       # What write queue length does an incoming req see
system.mem_ctrls.wrQLenPdf::24                   1078                       # What write queue length does an incoming req see
system.mem_ctrls.wrQLenPdf::25                   1319                       # What write queue length does an incoming req see
system.mem_ctrls.wrQLenPdf::26                   1431                       # What write queue length does an incoming req see
system.mem_ctrls.wrQLenPdf::27                   1120                       # What write queue length does an incoming req see
system.mem_ctrls.wrQLenPdf::28                    908                       # What write queue length does an incoming req see
system.mem_ctrls.wrQLenPdf::29                    985                       # What write queue length does an incoming req see
system.mem_ctrls.wrQLenPdf::30                   1080                       # What write queue length does an incoming req see
system.mem_ctrls.wrQLenPdf::31                    776                       # What write queue length does an incoming req see
system.mem_ctrls.wrQLenPdf::32                    764                       # What write queue length does an incoming req see
system.mem_ctrls.wrQLenPdf::33                     97                       # What write queue length does an incoming req see
system.mem_ctrls.wrQLenPdf::34                     55                       # What write queue length does an incoming req see
system.mem_ctrls.wrQLenPdf::35                     31                       # What write queue length does an incoming req see
system.mem_ctrls.wrQLenPdf::36                     34                       # What write queue length does an incoming req see
system.mem_ctrls.wrQLenPdf::37                     25                       # What write queue length does an incoming req see
system.mem_ctrls.wrQLenPdf::38                     23                       # What write queue length does an incoming req see
system.mem_ctrls.wrQLenPdf::39                     27                       # What write queue length does an incoming req see
system.mem_ctrls.wrQLenPdf::40                     24                       # What write queue length does an incoming req see
system.mem_ctrls.wrQLenPdf::41                     28                       # What write queue length does an incoming req see
system.mem_ctrls.wrQLenPdf::42                     27                       # What write queue length does an incoming req see
system.mem_ctrls.wrQLenPdf::43                     29                       # What write queue length does an incoming req see
system.mem_ctrls.wrQLenPdf::44                     34                       # What write queue length does an incoming req see
system.mem_ctrls.wrQLenPdf::45                     24                       # What write queue length does an incoming req see
system.mem_ctrls.wrQLenPdf::46                     38                       # What write queue length does an incoming req see
system.mem_ctrls.wrQLenPdf::47                     27                       # What write queue length does an incoming req see
system.mem_ctrls.wrQLenPdf::48                     31                       # What write queue length does an incoming req see
system.mem_ctrls.wrQLenPdf::49                     25                       # What write queue length does an incoming req see
system.mem_ctrls.wrQLenPdf::50                     23                       # What write queue length does an incoming req see
system.mem_ctrls.wrQLenPdf::51                     16                       # What write queue length does an incoming req see
system.mem_ctrls.wrQLenPdf::52                     13                       # What write queue length does an incoming req see
system.mem_ctrls.wrQLenPdf::53                     14                       # What write queue length does an incoming req see
system.mem_ctrls.wrQLenPdf::54                     16                       # What write queue length does an incoming req see
system.mem_ctrls.wrQLenPdf::55                      9                       # What write queue length does an incoming req see
system.mem_ctrls.wrQLenPdf::56                      9                       # What write queue length does an incoming req see
system.mem_ctrls.wrQLenPdf::57                     21                       # What write queue length does an incoming req see
system.mem_ctrls.wrQLenPdf::58                     12                       # What write queue length does an incoming req see
system.mem_ctrls.wrQLenPdf::59                      6                       # What write queue length does an incoming req see
system.mem_ctrls.wrQLenPdf::60                      8                       # What write queue length does an incoming req see
system.mem_ctrls.wrQLenPdf::61                     16                       # What write queue length does an incoming req see
system.mem_ctrls.wrQLenPdf::62                      4                       # What write queue length does an incoming req see
system.mem_ctrls.wrQLenPdf::63                      4                       # What write queue length does an incoming req see
system.mem_ctrls.bytesPerActivate::samples         9874                       # Bytes accessed per row activation
system.mem_ctrls.bytesPerActivate::mean    205.157788                       # Bytes accessed per row activation
system.mem_ctrls.bytesPerActivate::gmean   132.284412                       # Bytes accessed per row activation
system.mem_ctrls.bytesPerActivate::stdev   244.349204                       # Bytes accessed per row activation
system.mem_ctrls.bytesPerActivate::0-127         4767     48.28%     48.28% # Bytes accessed per row activation
system.mem_ctrls.bytesPerActivate::128-255         2350     23.80%     72.08% # Bytes accessed per row activation
system.mem_ctrls.bytesPerActivate::256-383         1653     16.74%     88.82% # Bytes accessed per row activation
system.mem_ctrls.bytesPerActivate::384-511          227      2.30%     91.12% # Bytes accessed per row activation
system.mem_ctrls.bytesPerActivate::512-639          108      1.09%     92.21% # Bytes accessed per row activation
system.mem_ctrls.bytesPerActivate::640-767          100      1.01%     93.22% # Bytes accessed per row activation
system.mem_ctrls.bytesPerActivate::768-895           37      0.37%     93.60% # Bytes accessed per row activation
system.mem_ctrls.bytesPerActivate::896-1023           59      0.60%     94.20% # Bytes accessed per row activation
system.mem_ctrls.bytesPerActivate::1024-1151          573      5.80%    100.00% # Bytes accessed per row activation
system.mem_ctrls.bytesPerActivate::total         9874                       # Bytes accessed per row activation
system.mem_ctrls.rdPerTurnAround::samples          648                       # Reads before turning the bus around for writes
system.mem_ctrls.rdPerTurnAround::mean      22.825617                       # Reads before turning the bus around for writes
system.mem_ctrls.rdPerTurnAround::stdev     18.686848                       # Reads before turning the bus around for writes
system.mem_ctrls.rdPerTurnAround::0-3             187     28.86%     28.86% # Reads before turning the bus around for writes
system.mem_ctrls.rdPerTurnAround::4-7               5      0.77%     29.63% # Reads before turning the bus around for writes
system.mem_ctrls.rdPerTurnAround::8-11              6      0.93%     30.56% # Reads before turning the bus around for writes
system.mem_ctrls.rdPerTurnAround::12-15            13      2.01%     32.56% # Reads before turning the bus around for writes
system.mem_ctrls.rdPerTurnAround::16-19            33      5.09%     37.65% # Reads before turning the bus around for writes
system.mem_ctrls.rdPerTurnAround::20-23            62      9.57%     47.22% # Reads before turning the bus around for writes
system.mem_ctrls.rdPerTurnAround::24-27            83     12.81%     60.03% # Reads before turning the bus around for writes
system.mem_ctrls.rdPerTurnAround::28-31            63      9.72%     69.75% # Reads before turning the bus around for writes
system.mem_ctrls.rdPerTurnAround::32-35            59      9.10%     78.86% # Reads before turning the bus around for writes
system.mem_ctrls.rdPerTurnAround::36-39            43      6.64%     85.49% # Reads before turning the bus around for writes
system.mem_ctrls.rdPerTurnAround::40-43            22      3.40%     88.89% # Reads before turning the bus around for writes
system.mem_ctrls.rdPerTurnAround::44-47            15      2.31%     91.20% # Reads before turning the bus around for writes
system.mem_ctrls.rdPerTurnAround::48-51            14      2.16%     93.36% # Reads before turning the bus around for writes
system.mem_ctrls.rdPerTurnAround::52-55            12      1.85%     95.22% # Reads before turning the bus around for writes
system.mem_ctrls.rdPerTurnAround::56-59            11      1.70%     96.91% # Reads before turning the bus around for writes
system.mem_ctrls.rdPerTurnAround::60-63             5      0.77%     97.69% # Reads before turning the bus around for writes
system.mem_ctrls.rdPerTurnAround::68-71             5      0.77%     98.46% # Reads before turning the bus around for writes
system.mem_ctrls.rdPerTurnAround::72-75             4      0.62%     99.07% # Reads before turning the bus around for writes
system.mem_ctrls.rdPerTurnAround::80-83             3      0.46%     99.54% # Reads before turning the bus around for writes
system.mem_ctrls.rdPerTurnAround::84-87             1      0.15%     99.69% # Reads before turning the bus around for writes
system.mem_ctrls.rdPerTurnAround::96-99             1      0.15%     99.85% # Reads before turning the bus around for writes
system.mem_ctrls.rdPerTurnAround::104-107            1      0.15%    100.00% # Reads before turning the bus around for writes
system.mem_ctrls.rdPerTurnAround::total           648                       # Reads before turning the bus around for writes
system.mem_ctrls.wrPerTurnAround::samples          648                       # Writes before turning the bus around for reads
system.mem_ctrls.wrPerTurnAround::mean      25.941358                       # Writes before turning the bus around for reads
system.mem_ctrls.wrPerTurnAround::gmean     22.601887                       # Writes before turning the bus around for reads
system.mem_ctrls.wrPerTurnAround::stdev     17.981433                       # Writes before turning the bus around for reads
system.mem_ctrls.wrPerTurnAround::16-19           383     59.10%     59.10% # Writes before turning the bus around for reads
system.mem_ctrls.wrPerTurnAround::20-23            73     11.27%     70.37% # Writes before turning the bus around for reads
system.mem_ctrls.wrPerTurnAround::24-27            25      3.86%     74.23% # Writes before turning the bus around for reads
system.mem_ctrls.wrPerTurnAround::28-31            20      3.09%     77.31% # Writes before turning the bus around for reads
system.mem_ctrls.wrPerTurnAround::32-35            47      7.25%     84.57% # Writes before turning the bus around for reads
system.mem_ctrls.wrPerTurnAround::36-39            15      2.31%     86.88% # Writes before turning the bus around for reads
system.mem_ctrls.wrPerTurnAround::40-43             4      0.62%     87.50% # Writes before turning the bus around for reads
system.mem_ctrls.wrPerTurnAround::44-47             9      1.39%     88.89% # Writes before turning the bus around for reads
system.mem_ctrls.wrPerTurnAround::48-51             8      1.23%     90.12% # Writes before turning the bus around for reads
system.mem_ctrls.wrPerTurnAround::52-55             1      0.15%     90.28% # Writes before turning the bus around for reads
system.mem_ctrls.wrPerTurnAround::56-59             2      0.31%     90.59% # Writes before turning the bus around for reads
system.mem_ctrls.wrPerTurnAround::60-63             7      1.08%     91.67% # Writes before turning the bus around for reads
system.mem_ctrls.wrPerTurnAround::64-67            45      6.94%     98.61% # Writes before turning the bus around for reads
system.mem_ctrls.wrPerTurnAround::76-79             1      0.15%     98.77% # Writes before turning the bus around for reads
system.mem_ctrls.wrPerTurnAround::80-83             1      0.15%     98.92% # Writes before turning the bus around for reads
system.mem_ctrls.wrPerTurnAround::88-91             1      0.15%     99.07% # Writes before turning the bus around for reads
system.mem_ctrls.wrPerTurnAround::100-103            1      0.15%     99.23% # Writes before turning the bus around for reads
system.mem_ctrls.wrPerTurnAround::104-107            1      0.15%     99.38% # Writes before turning the bus around for reads
system.mem_ctrls.wrPerTurnAround::128-131            2      0.31%     99.69% # Writes before turning the bus around for reads
system.mem_ctrls.wrPerTurnAround::140-143            1      0.15%     99.85% # Writes before turning the bus around for reads
system.mem_ctrls.wrPerTurnAround::192-195            1      0.15%    100.00% # Writes before turning the bus around for reads
system.mem_ctrls.wrPerTurnAround::total           648                       # Writes before turning the bus around for reads
system.mem_ctrls.totQLat                   1030041793                       # Total ticks spent queuing
system.mem_ctrls.totMemAccLat              1308329293                       # Total ticks spent from burst creation until serviced by the DRAM
system.mem_ctrls.totBusLat                   74210000                       # Total ticks spent in databus transfers
system.mem_ctrls.avgQLat                     69400.47                       # Average queueing delay per DRAM burst
system.mem_ctrls.avgBusLat                    5000.00                       # Average bus latency per DRAM burst
system.mem_ctrls.avgMemAccLat                88150.47                       # Average memory access latency per DRAM burst
system.mem_ctrls.avgRdBW                         0.57                       # Average DRAM read bandwidth in MiByte/s
system.mem_ctrls.avgWrBW                         0.64                       # Average achieved write bandwidth in MiByte/s
system.mem_ctrls.avgRdBWSys                      0.57                       # Average system read bandwidth in MiByte/s
system.mem_ctrls.avgWrBWSys                      0.65                       # Average system write bandwidth in MiByte/s
system.mem_ctrls.peakBW                      12800.00                       # Theoretical peak bandwidth in MiByte/s
system.mem_ctrls.busUtil                         0.01                       # Data bus utilization in percentage
system.mem_ctrls.busUtilRead                     0.00                       # Data bus utilization in percentage for reads
system.mem_ctrls.busUtilWrite                    0.01                       # Data bus utilization in percentage for writes
system.mem_ctrls.avgRdQLen                       1.39                       # Average read queue length when enqueuing
system.mem_ctrls.avgWrQLen                      25.15                       # Average write queue length when enqueuing
system.mem_ctrls.readRowHits                    10552                       # Number of row buffer hits during reads
system.mem_ctrls.writeRowHits                   11226                       # Number of row buffer hits during writes
system.mem_ctrls.readRowHitRate                 71.10                       # Row buffer hit rate for reads
system.mem_ctrls.writeRowHitRate                66.65                       # Row buffer hit rate for writes
system.mem_ctrls.avgGap                   49199873.68                       # Average gap between requests
system.mem_ctrls.pageHitRate                    68.74                       # Row buffer hit rate, read and write combined
system.mem_ctrls_0.actEnergy                 34657560                       # Energy for activate commands per rank (pJ)
system.mem_ctrls_0.preEnergy                 18420930                       # Energy for precharge commands per rank (pJ)
system.mem_ctrls_0.readEnergy                52479000                       # Energy for read commands per rank (pJ)
system.mem_ctrls_0.writeEnergy               43456500                       # Energy for write commands per rank (pJ)
system.mem_ctrls_0.refreshEnergy         663811200.000000                       # Energy for refresh commands per rank (pJ)
system.mem_ctrls_0.actBackEnergy            376099680                       # Energy for active background per rank (pJ)
system.mem_ctrls_0.preBackEnergy             41473920                       # Energy for precharge background per rank (pJ)
system.mem_ctrls_0.actPowerDownEnergy      1278595500                       # Energy for active power-down per rank (pJ)
system.mem_ctrls_0.prePowerDownEnergy       956283360                       # Energy for precharge power-down per rank (pJ)
system.mem_ctrls_0.selfRefreshEnergy     399551977380                       # Energy for self refresh per rank (pJ)
system.mem_ctrls_0.totalEnergy           403017255030                       # Total energy per rank (pJ)
system.mem_ctrls_0.averagePower            241.276278                       # Core power per rank (mW)
system.mem_ctrls_0.totalIdleTime         1497091092098                       # Total Idle time Per DRAM Rank
system.mem_ctrls_0.memoryStateTime::IDLE     82761998                       # Time in different power states
system.mem_ctrls_0.memoryStateTime::REF     282630000                       # Time in different power states
system.mem_ctrls_0.memoryStateTime::SREF 1664104986250                       # Time in different power states
system.mem_ctrls_0.memoryStateTime::PRE_PDN   2490314942                       # Time in different power states
system.mem_ctrls_0.memoryStateTime::ACT     567493406                       # Time in different power states
system.mem_ctrls_0.memoryStateTime::ACT_PDN   2803890404                       # Time in different power states
system.mem_ctrls_1.actEnergy                 35842800                       # Energy for activate commands per rank (pJ)
system.mem_ctrls_1.preEnergy                 19050900                       # Energy for precharge commands per rank (pJ)
system.mem_ctrls_1.readEnergy                53492880                       # Energy for read commands per rank (pJ)
system.mem_ctrls_1.writeEnergy               44291700                       # Energy for write commands per rank (pJ)
system.mem_ctrls_1.refreshEnergy         712982400.000000                       # Energy for refresh commands per rank (pJ)
system.mem_ctrls_1.actBackEnergy            378224070                       # Energy for active background per rank (pJ)
system.mem_ctrls_1.preBackEnergy             44749440                       # Energy for precharge background per rank (pJ)
system.mem_ctrls_1.actPowerDownEnergy      1376357340                       # Energy for active power-down per rank (pJ)
system.mem_ctrls_1.prePowerDownEnergy      1035707520                       # Energy for precharge power-down per rank (pJ)
system.mem_ctrls_1.selfRefreshEnergy     399462065820                       # Energy for self refresh per rank (pJ)
system.mem_ctrls_1.totalEnergy           403162764870                       # Total energy per rank (pJ)
system.mem_ctrls_1.averagePower            241.363391                       # Core power per rank (mW)
system.mem_ctrls_1.totalIdleTime         1560177212622                       # Total Idle time Per DRAM Rank
system.mem_ctrls_1.memoryStateTime::IDLE     89455252                       # Time in different power states
system.mem_ctrls_1.memoryStateTime::REF     303586000                       # Time in different power states
system.mem_ctrls_1.memoryStateTime::SREF 1663670592750                       # Time in different power states
system.mem_ctrls_1.memoryStateTime::PRE_PDN   2697203761                       # Time in different power states
system.mem_ctrls_1.memoryStateTime::ACT     552866627                       # Time in different power states
system.mem_ctrls_1.memoryStateTime::ACT_PDN   3018372610                       # Time in different power states
system.pwrStateResidencyTicks::UNDEFINED 6470529662500                       # Cumulative time (in ticks) in various power states
system.apicbridge.pwrStateResidencyTicks::UNDEFINED 6470529662500                       # Cumulative time (in ticks) in various power states
system.bridge.pwrStateResidencyTicks::UNDEFINED 6470529662500                       # Cumulative time (in ticks) in various power states
system.cpu_voltage_domain.voltage                   1                       # Voltage in Volts
system.cpu_clk_domain.clock                       500                       # Clock period in ticks
system.cpu0.dtb.walker.pwrStateResidencyTicks::UNDEFINED 6470529662500                       # Cumulative time (in ticks) in various power states
system.cpu0.dtb.rdAccesses                          0                       # TLB accesses on read requests
system.cpu0.dtb.wrAccesses                          0                       # TLB accesses on write requests
system.cpu0.dtb.rdMisses                            0                       # TLB misses on read requests
system.cpu0.dtb.wrMisses                            0                       # TLB misses on write requests
system.cpu0.apic_clk_domain.clock                8000                       # Clock period in ticks
system.cpu0.interrupts.pwrStateResidencyTicks::UNDEFINED 6470529662500                       # Cumulative time (in ticks) in various power states
system.cpu0.itb.walker.pwrStateResidencyTicks::UNDEFINED 6470529662500                       # Cumulative time (in ticks) in various power states
system.cpu0.itb.rdAccesses                          0                       # TLB accesses on read requests
system.cpu0.itb.wrAccesses                          0                       # TLB accesses on write requests
system.cpu0.itb.rdMisses                            0                       # TLB misses on read requests
system.cpu0.itb.wrMisses                            0                       # TLB misses on write requests
system.cpu0.pwrStateResidencyTicks::OFF  6470529660500                       # Cumulative time (in ticks) in various power states
system.cpu0.numCycles                               0                       # number of cpu cycles simulated
system.cpu0.numWorkItemsStarted                     0                       # number of work items this cpu started
system.cpu0.numWorkItemsCompleted                   0                       # number of work items this cpu completed
system.cpu0.kern.inst.arm                           0                       # number of arm instructions executed
system.cpu0.kern.inst.quiesce                       0                       # number of quiesce instructions executed
system.cpu0.committedInsts                          0                       # Number of instructions committed
system.cpu0.committedOps                            0                       # Number of ops (including micro ops) committed
system.cpu0.num_int_alu_accesses                    0                       # Number of integer alu accesses
system.cpu0.num_fp_alu_accesses                     0                       # Number of float alu accesses
system.cpu0.num_vec_alu_accesses                    0                       # Number of vector alu accesses
system.cpu0.num_func_calls                          0                       # number of times a function call or return occured
system.cpu0.num_conditional_control_insts            0                       # number of instructions that are conditional controls
system.cpu0.num_int_insts                           0                       # number of integer instructions
system.cpu0.num_fp_insts                            0                       # number of float instructions
system.cpu0.num_vec_insts                           0                       # number of vector instructions
system.cpu0.num_int_register_reads                  0                       # number of times the integer registers were read
system.cpu0.num_int_register_writes                 0                       # number of times the integer registers were written
system.cpu0.num_fp_register_reads                   0                       # number of times the floating registers were read
system.cpu0.num_fp_register_writes                  0                       # number of times the floating registers were written
system.cpu0.num_vec_register_reads                  0                       # number of times the vector registers were read
system.cpu0.num_vec_register_writes                 0                       # number of times the vector registers were written
system.cpu0.num_mem_refs                            0                       # number of memory refs
system.cpu0.num_load_insts                          0                       # Number of load instructions
system.cpu0.num_store_insts                         0                       # Number of store instructions
system.cpu0.num_idle_cycles                         0                       # Number of idle cycles
system.cpu0.num_busy_cycles                         0                       # Number of busy cycles
system.cpu0.not_idle_fraction                       1                       # Percentage of non-idle cycles
system.cpu0.idle_fraction                           0                       # Percentage of idle cycles
system.cpu0.op_class::No_OpClass                    0                       # Class of executed instruction
system.cpu0.op_class::IntAlu                        0                       # Class of executed instruction
system.cpu0.op_class::IntMult                       0                       # Class of executed instruction
system.cpu0.op_class::IntDiv                        0                       # Class of executed instruction
system.cpu0.op_class::FloatAdd                      0                       # Class of executed instruction
system.cpu0.op_class::FloatCmp                      0                       # Class of executed instruction
system.cpu0.op_class::FloatCvt                      0                       # Class of executed instruction
system.cpu0.op_class::FloatMult                     0                       # Class of executed instruction
system.cpu0.op_class::FloatMultAcc                  0                       # Class of executed instruction
system.cpu0.op_class::FloatDiv                      0                       # Class of executed instruction
system.cpu0.op_class::FloatMisc                     0                       # Class of executed instruction
system.cpu0.op_class::FloatSqrt                     0                       # Class of executed instruction
system.cpu0.op_class::SimdAdd                       0                       # Class of executed instruction
system.cpu0.op_class::SimdAddAcc                    0                       # Class of executed instruction
system.cpu0.op_class::SimdAlu                       0                       # Class of executed instruction
system.cpu0.op_class::SimdCmp                       0                       # Class of executed instruction
system.cpu0.op_class::SimdCvt                       0                       # Class of executed instruction
system.cpu0.op_class::SimdMisc                      0                       # Class of executed instruction
system.cpu0.op_class::SimdMult                      0                       # Class of executed instruction
system.cpu0.op_class::SimdMultAcc                   0                       # Class of executed instruction
system.cpu0.op_class::SimdShift                     0                       # Class of executed instruction
system.cpu0.op_class::SimdShiftAcc                  0                       # Class of executed instruction
system.cpu0.op_class::SimdSqrt                      0                       # Class of executed instruction
system.cpu0.op_class::SimdFloatAdd                  0                       # Class of executed instruction
system.cpu0.op_class::SimdFloatAlu                  0                       # Class of executed instruction
system.cpu0.op_class::SimdFloatCmp                  0                       # Class of executed instruction
system.cpu0.op_class::SimdFloatCvt                  0                       # Class of executed instruction
system.cpu0.op_class::SimdFloatDiv                  0                       # Class of executed instruction
system.cpu0.op_class::SimdFloatMisc                 0                       # Class of executed instruction
system.cpu0.op_class::SimdFloatMult                 0                       # Class of executed instruction
system.cpu0.op_class::SimdFloatMultAcc              0                       # Class of executed instruction
system.cpu0.op_class::SimdFloatSqrt                 0                       # Class of executed instruction
system.cpu0.op_class::MemRead                       0                       # Class of executed instruction
system.cpu0.op_class::MemWrite                      0                       # Class of executed instruction
system.cpu0.op_class::FloatMemRead                  0                       # Class of executed instruction
system.cpu0.op_class::FloatMemWrite                 0                       # Class of executed instruction
system.cpu0.op_class::IprAccess                     0                       # Class of executed instruction
system.cpu0.op_class::InstPrefetch                  0                       # Class of executed instruction
system.cpu0.op_class::total                         0                       # Class of executed instruction
system.cpu0.dcache.tags.pwrStateResidencyTicks::UNDEFINED 6470529662500                       # Cumulative time (in ticks) in various power states
system.cpu0.dcache.tags.replacements            17037                       # number of replacements
system.cpu0.dcache.tags.tagsinuse          923.047987                       # Cycle average of tags in use
system.cpu0.dcache.tags.total_refs            1043039                       # Total number of references to valid blocks.
system.cpu0.dcache.tags.sampled_refs            18016                       # Sample count of references to valid blocks.
system.cpu0.dcache.tags.avg_refs            57.895149                       # Average number of references to valid blocks.
system.cpu0.dcache.tags.warmup_cycle                0                       # Cycle when the warmup percentage was hit.
system.cpu0.dcache.tags.occ_blocks::switch_cpus0.data    92.913527                       # Average occupied blocks per requestor
system.cpu0.dcache.tags.occ_blocks::switch_cpus_10.data   830.134460                       # Average occupied blocks per requestor
system.cpu0.dcache.tags.occ_percent::switch_cpus0.data     0.090736                       # Average percentage of cache occupancy
system.cpu0.dcache.tags.occ_percent::switch_cpus_10.data     0.810678                       # Average percentage of cache occupancy
system.cpu0.dcache.tags.occ_percent::total     0.901414                       # Average percentage of cache occupancy
system.cpu0.dcache.tags.occ_task_id_blocks::1024          979                       # Occupied blocks per task id
system.cpu0.dcache.tags.age_task_id_blocks_1024::3            5                       # Occupied blocks per task id
system.cpu0.dcache.tags.age_task_id_blocks_1024::4          974                       # Occupied blocks per task id
system.cpu0.dcache.tags.occ_task_id_percent::1024     0.956055                       # Percentage of cache occupancy per task id
system.cpu0.dcache.tags.tag_accesses          2152350                       # Number of tag accesses
system.cpu0.dcache.tags.data_accesses         2152350                       # Number of data accesses
system.cpu0.dcache.pwrStateResidencyTicks::UNDEFINED 6470529662500                       # Cumulative time (in ticks) in various power states
system.cpu0.dcache.ReadReq_hits::switch_cpus0.data         5734                       # number of ReadReq hits
system.cpu0.dcache.ReadReq_hits::switch_cpus_10.data       638208                       # number of ReadReq hits
system.cpu0.dcache.ReadReq_hits::total         643942                       # number of ReadReq hits
system.cpu0.dcache.WriteReq_hits::switch_cpus0.data         3160                       # number of WriteReq hits
system.cpu0.dcache.WriteReq_hits::switch_cpus_10.data       390064                       # number of WriteReq hits
system.cpu0.dcache.WriteReq_hits::total        393224                       # number of WriteReq hits
system.cpu0.dcache.SoftPFReq_hits::switch_cpus0.data            6                       # number of SoftPFReq hits
system.cpu0.dcache.SoftPFReq_hits::switch_cpus_10.data           55                       # number of SoftPFReq hits
system.cpu0.dcache.SoftPFReq_hits::total           61                       # number of SoftPFReq hits
system.cpu0.dcache.demand_hits::switch_cpus0.data         8894                       # number of demand (read+write) hits
system.cpu0.dcache.demand_hits::switch_cpus_10.data      1028272                       # number of demand (read+write) hits
system.cpu0.dcache.demand_hits::total         1037166                       # number of demand (read+write) hits
system.cpu0.dcache.overall_hits::switch_cpus0.data         8900                       # number of overall hits
system.cpu0.dcache.overall_hits::switch_cpus_10.data      1028327                       # number of overall hits
system.cpu0.dcache.overall_hits::total        1037227                       # number of overall hits
system.cpu0.dcache.ReadReq_misses::switch_cpus0.data           94                       # number of ReadReq misses
system.cpu0.dcache.ReadReq_misses::switch_cpus_10.data        20089                       # number of ReadReq misses
system.cpu0.dcache.ReadReq_misses::total        20183                       # number of ReadReq misses
system.cpu0.dcache.WriteReq_misses::switch_cpus0.data           59                       # number of WriteReq misses
system.cpu0.dcache.WriteReq_misses::switch_cpus_10.data         7025                       # number of WriteReq misses
system.cpu0.dcache.WriteReq_misses::total         7084                       # number of WriteReq misses
system.cpu0.dcache.SoftPFReq_misses::switch_cpus_10.data          390                       # number of SoftPFReq misses
system.cpu0.dcache.SoftPFReq_misses::total          390                       # number of SoftPFReq misses
system.cpu0.dcache.demand_misses::switch_cpus0.data          153                       # number of demand (read+write) misses
system.cpu0.dcache.demand_misses::switch_cpus_10.data        27114                       # number of demand (read+write) misses
system.cpu0.dcache.demand_misses::total         27267                       # number of demand (read+write) misses
system.cpu0.dcache.overall_misses::switch_cpus0.data          153                       # number of overall misses
system.cpu0.dcache.overall_misses::switch_cpus_10.data        27504                       # number of overall misses
system.cpu0.dcache.overall_misses::total        27657                       # number of overall misses
system.cpu0.dcache.ReadReq_miss_latency::switch_cpus_10.data    188107000                       # number of ReadReq miss cycles
system.cpu0.dcache.ReadReq_miss_latency::total    188107000                       # number of ReadReq miss cycles
system.cpu0.dcache.WriteReq_miss_latency::switch_cpus_10.data     82321000                       # number of WriteReq miss cycles
system.cpu0.dcache.WriteReq_miss_latency::total     82321000                       # number of WriteReq miss cycles
system.cpu0.dcache.demand_miss_latency::switch_cpus_10.data    270428000                       # number of demand (read+write) miss cycles
system.cpu0.dcache.demand_miss_latency::total    270428000                       # number of demand (read+write) miss cycles
system.cpu0.dcache.overall_miss_latency::switch_cpus_10.data    270428000                       # number of overall miss cycles
system.cpu0.dcache.overall_miss_latency::total    270428000                       # number of overall miss cycles
system.cpu0.dcache.ReadReq_accesses::switch_cpus0.data         5828                       # number of ReadReq accesses(hits+misses)
system.cpu0.dcache.ReadReq_accesses::switch_cpus_10.data       658297                       # number of ReadReq accesses(hits+misses)
system.cpu0.dcache.ReadReq_accesses::total       664125                       # number of ReadReq accesses(hits+misses)
system.cpu0.dcache.WriteReq_accesses::switch_cpus0.data         3219                       # number of WriteReq accesses(hits+misses)
system.cpu0.dcache.WriteReq_accesses::switch_cpus_10.data       397089                       # number of WriteReq accesses(hits+misses)
system.cpu0.dcache.WriteReq_accesses::total       400308                       # number of WriteReq accesses(hits+misses)
system.cpu0.dcache.SoftPFReq_accesses::switch_cpus0.data            6                       # number of SoftPFReq accesses(hits+misses)
system.cpu0.dcache.SoftPFReq_accesses::switch_cpus_10.data          445                       # number of SoftPFReq accesses(hits+misses)
system.cpu0.dcache.SoftPFReq_accesses::total          451                       # number of SoftPFReq accesses(hits+misses)
system.cpu0.dcache.demand_accesses::switch_cpus0.data         9047                       # number of demand (read+write) accesses
system.cpu0.dcache.demand_accesses::switch_cpus_10.data      1055386                       # number of demand (read+write) accesses
system.cpu0.dcache.demand_accesses::total      1064433                       # number of demand (read+write) accesses
system.cpu0.dcache.overall_accesses::switch_cpus0.data         9053                       # number of overall (read+write) accesses
system.cpu0.dcache.overall_accesses::switch_cpus_10.data      1055831                       # number of overall (read+write) accesses
system.cpu0.dcache.overall_accesses::total      1064884                       # number of overall (read+write) accesses
system.cpu0.dcache.ReadReq_miss_rate::switch_cpus0.data     0.016129                       # miss rate for ReadReq accesses
system.cpu0.dcache.ReadReq_miss_rate::switch_cpus_10.data     0.030517                       # miss rate for ReadReq accesses
system.cpu0.dcache.ReadReq_miss_rate::total     0.030390                       # miss rate for ReadReq accesses
system.cpu0.dcache.WriteReq_miss_rate::switch_cpus0.data     0.018329                       # miss rate for WriteReq accesses
system.cpu0.dcache.WriteReq_miss_rate::switch_cpus_10.data     0.017691                       # miss rate for WriteReq accesses
system.cpu0.dcache.WriteReq_miss_rate::total     0.017696                       # miss rate for WriteReq accesses
system.cpu0.dcache.SoftPFReq_miss_rate::switch_cpus_10.data     0.876404                       # miss rate for SoftPFReq accesses
system.cpu0.dcache.SoftPFReq_miss_rate::total     0.864745                       # miss rate for SoftPFReq accesses
system.cpu0.dcache.demand_miss_rate::switch_cpus0.data     0.016912                       # miss rate for demand accesses
system.cpu0.dcache.demand_miss_rate::switch_cpus_10.data     0.025691                       # miss rate for demand accesses
system.cpu0.dcache.demand_miss_rate::total     0.025616                       # miss rate for demand accesses
system.cpu0.dcache.overall_miss_rate::switch_cpus0.data     0.016900                       # miss rate for overall accesses
system.cpu0.dcache.overall_miss_rate::switch_cpus_10.data     0.026050                       # miss rate for overall accesses
system.cpu0.dcache.overall_miss_rate::total     0.025972                       # miss rate for overall accesses
system.cpu0.dcache.ReadReq_avg_miss_latency::switch_cpus_10.data  9363.681617                       # average ReadReq miss latency
system.cpu0.dcache.ReadReq_avg_miss_latency::total  9320.071347                       # average ReadReq miss latency
system.cpu0.dcache.WriteReq_avg_miss_latency::switch_cpus_10.data 11718.291815                       # average WriteReq miss latency
system.cpu0.dcache.WriteReq_avg_miss_latency::total 11620.694523                       # average WriteReq miss latency
system.cpu0.dcache.demand_avg_miss_latency::switch_cpus_10.data  9973.740503                       # average overall miss latency
system.cpu0.dcache.demand_avg_miss_latency::total  9917.776066                       # average overall miss latency
system.cpu0.dcache.overall_avg_miss_latency::switch_cpus_10.data  9832.315300                       # average overall miss latency
system.cpu0.dcache.overall_avg_miss_latency::total  9777.922407                       # average overall miss latency
system.cpu0.dcache.blocked_cycles::no_mshrs            0                       # number of cycles access was blocked
system.cpu0.dcache.blocked_cycles::no_targets            0                       # number of cycles access was blocked
system.cpu0.dcache.blocked::no_mshrs                0                       # number of cycles access was blocked
system.cpu0.dcache.blocked::no_targets              0                       # number of cycles access was blocked
system.cpu0.dcache.avg_blocked_cycles::no_mshrs          nan                       # average number of cycles each access was blocked
system.cpu0.dcache.avg_blocked_cycles::no_targets          nan                       # average number of cycles each access was blocked
system.cpu0.dcache.writebacks::writebacks         7078                       # number of writebacks
system.cpu0.dcache.writebacks::total             7078                       # number of writebacks
system.cpu0.dcache.WriteReq_mshr_hits::switch_cpus_10.data            3                       # number of WriteReq MSHR hits
system.cpu0.dcache.WriteReq_mshr_hits::total            3                       # number of WriteReq MSHR hits
system.cpu0.dcache.demand_mshr_hits::switch_cpus_10.data            3                       # number of demand (read+write) MSHR hits
system.cpu0.dcache.demand_mshr_hits::total            3                       # number of demand (read+write) MSHR hits
system.cpu0.dcache.overall_mshr_hits::switch_cpus_10.data            3                       # number of overall MSHR hits
system.cpu0.dcache.overall_mshr_hits::total            3                       # number of overall MSHR hits
system.cpu0.dcache.ReadReq_mshr_misses::switch_cpus_10.data        20089                       # number of ReadReq MSHR misses
system.cpu0.dcache.ReadReq_mshr_misses::total        20089                       # number of ReadReq MSHR misses
system.cpu0.dcache.WriteReq_mshr_misses::switch_cpus_10.data         7022                       # number of WriteReq MSHR misses
system.cpu0.dcache.WriteReq_mshr_misses::total         7022                       # number of WriteReq MSHR misses
system.cpu0.dcache.SoftPFReq_mshr_misses::switch_cpus_10.data          390                       # number of SoftPFReq MSHR misses
system.cpu0.dcache.SoftPFReq_mshr_misses::total          390                       # number of SoftPFReq MSHR misses
system.cpu0.dcache.demand_mshr_misses::switch_cpus_10.data        27111                       # number of demand (read+write) MSHR misses
system.cpu0.dcache.demand_mshr_misses::total        27111                       # number of demand (read+write) MSHR misses
system.cpu0.dcache.overall_mshr_misses::switch_cpus_10.data        27501                       # number of overall MSHR misses
system.cpu0.dcache.overall_mshr_misses::total        27501                       # number of overall MSHR misses
system.cpu0.dcache.ReadReq_mshr_uncacheable::switch_cpus_10.data            6                       # number of ReadReq MSHR uncacheable
system.cpu0.dcache.ReadReq_mshr_uncacheable::total            6                       # number of ReadReq MSHR uncacheable
system.cpu0.dcache.WriteReq_mshr_uncacheable::switch_cpus_10.data          425                       # number of WriteReq MSHR uncacheable
system.cpu0.dcache.WriteReq_mshr_uncacheable::total          425                       # number of WriteReq MSHR uncacheable
system.cpu0.dcache.overall_mshr_uncacheable_misses::switch_cpus_10.data          431                       # number of overall MSHR uncacheable misses
system.cpu0.dcache.overall_mshr_uncacheable_misses::total          431                       # number of overall MSHR uncacheable misses
system.cpu0.dcache.ReadReq_mshr_miss_latency::switch_cpus_10.data    168018000                       # number of ReadReq MSHR miss cycles
system.cpu0.dcache.ReadReq_mshr_miss_latency::total    168018000                       # number of ReadReq MSHR miss cycles
system.cpu0.dcache.WriteReq_mshr_miss_latency::switch_cpus_10.data     75082500                       # number of WriteReq MSHR miss cycles
system.cpu0.dcache.WriteReq_mshr_miss_latency::total     75082500                       # number of WriteReq MSHR miss cycles
system.cpu0.dcache.SoftPFReq_mshr_miss_latency::switch_cpus_10.data      2815500                       # number of SoftPFReq MSHR miss cycles
system.cpu0.dcache.SoftPFReq_mshr_miss_latency::total      2815500                       # number of SoftPFReq MSHR miss cycles
system.cpu0.dcache.demand_mshr_miss_latency::switch_cpus_10.data    243100500                       # number of demand (read+write) MSHR miss cycles
system.cpu0.dcache.demand_mshr_miss_latency::total    243100500                       # number of demand (read+write) MSHR miss cycles
system.cpu0.dcache.overall_mshr_miss_latency::switch_cpus_10.data    245916000                       # number of overall MSHR miss cycles
system.cpu0.dcache.overall_mshr_miss_latency::total    245916000                       # number of overall MSHR miss cycles
system.cpu0.dcache.ReadReq_mshr_uncacheable_latency::switch_cpus_10.data       944000                       # number of ReadReq MSHR uncacheable cycles
system.cpu0.dcache.ReadReq_mshr_uncacheable_latency::total       944000                       # number of ReadReq MSHR uncacheable cycles
system.cpu0.dcache.overall_mshr_uncacheable_latency::switch_cpus_10.data       944000                       # number of overall MSHR uncacheable cycles
system.cpu0.dcache.overall_mshr_uncacheable_latency::total       944000                       # number of overall MSHR uncacheable cycles
system.cpu0.dcache.ReadReq_mshr_miss_rate::switch_cpus_10.data     0.030517                       # mshr miss rate for ReadReq accesses
system.cpu0.dcache.ReadReq_mshr_miss_rate::total     0.030249                       # mshr miss rate for ReadReq accesses
system.cpu0.dcache.WriteReq_mshr_miss_rate::switch_cpus_10.data     0.017684                       # mshr miss rate for WriteReq accesses
system.cpu0.dcache.WriteReq_mshr_miss_rate::total     0.017541                       # mshr miss rate for WriteReq accesses
system.cpu0.dcache.SoftPFReq_mshr_miss_rate::switch_cpus_10.data     0.876404                       # mshr miss rate for SoftPFReq accesses
system.cpu0.dcache.SoftPFReq_mshr_miss_rate::total     0.864745                       # mshr miss rate for SoftPFReq accesses
system.cpu0.dcache.demand_mshr_miss_rate::switch_cpus_10.data     0.025688                       # mshr miss rate for demand accesses
system.cpu0.dcache.demand_mshr_miss_rate::total     0.025470                       # mshr miss rate for demand accesses
system.cpu0.dcache.overall_mshr_miss_rate::switch_cpus_10.data     0.026047                       # mshr miss rate for overall accesses
system.cpu0.dcache.overall_mshr_miss_rate::total     0.025825                       # mshr miss rate for overall accesses
system.cpu0.dcache.ReadReq_avg_mshr_miss_latency::switch_cpus_10.data  8363.681617                       # average ReadReq mshr miss latency
system.cpu0.dcache.ReadReq_avg_mshr_miss_latency::total  8363.681617                       # average ReadReq mshr miss latency
system.cpu0.dcache.WriteReq_avg_mshr_miss_latency::switch_cpus_10.data 10692.466534                       # average WriteReq mshr miss latency
system.cpu0.dcache.WriteReq_avg_mshr_miss_latency::total 10692.466534                       # average WriteReq mshr miss latency
system.cpu0.dcache.SoftPFReq_avg_mshr_miss_latency::switch_cpus_10.data  7219.230769                       # average SoftPFReq mshr miss latency
system.cpu0.dcache.SoftPFReq_avg_mshr_miss_latency::total  7219.230769                       # average SoftPFReq mshr miss latency
system.cpu0.dcache.demand_avg_mshr_miss_latency::switch_cpus_10.data  8966.858471                       # average overall mshr miss latency
system.cpu0.dcache.demand_avg_mshr_miss_latency::total  8966.858471                       # average overall mshr miss latency
system.cpu0.dcache.overall_avg_mshr_miss_latency::switch_cpus_10.data  8942.074834                       # average overall mshr miss latency
system.cpu0.dcache.overall_avg_mshr_miss_latency::total  8942.074834                       # average overall mshr miss latency
system.cpu0.dcache.ReadReq_avg_mshr_uncacheable_latency::switch_cpus_10.data 157333.333333                       # average ReadReq mshr uncacheable latency
system.cpu0.dcache.ReadReq_avg_mshr_uncacheable_latency::total 157333.333333                       # average ReadReq mshr uncacheable latency
system.cpu0.dcache.overall_avg_mshr_uncacheable_latency::switch_cpus_10.data  2190.255220                       # average overall mshr uncacheable latency
system.cpu0.dcache.overall_avg_mshr_uncacheable_latency::total  2190.255220                       # average overall mshr uncacheable latency
system.cpu0.dtb_walker_cache.tags.pwrStateResidencyTicks::UNDEFINED 6470529662500                       # Cumulative time (in ticks) in various power states
system.cpu0.dtb_walker_cache.tags.replacements          167                       # number of replacements
[...]
system.tol2bus.pkt_count_system.cpu4.icache.mem_side::system.l2.cpu_side        35259                       # Packet count per connected master and slave (bytes)
system.tol2bus.pkt_count_system.cpu4.dcache.mem_side::system.l2.cpu_side        52508                       # Packet count per connected master and slave (bytes)
system.tol2bus.pkt_count_system.cpu4.itb_walker_cache.mem_side::system.l2.cpu_side           21                       # Packet count per connected master and slave (bytes)
system.tol2bus.pkt_count_system.cpu4.dtb_walker_cache.mem_side::system.l2.cpu_side          234                       # Packet count per connected master and slave (bytes)
system.tol2bus.pkt_count_system.cpu5.icache.mem_side::system.l2.cpu_side        33273                       # Packet count per connected master and slave (bytes)
system.tol2bus.pkt_count_system.cpu5.dcache.mem_side::system.l2.cpu_side        47388                       # Packet count per connected master and slave (bytes)
system.tol2bus.pkt_count_system.cpu5.itb_walker_cache.mem_side::system.l2.cpu_side           14                       # Packet count per connected master and slave (bytes)
system.tol2bus.pkt_count_system.cpu5.dtb_walker_cache.mem_side::system.l2.cpu_side          253                       # Packet count per connected master and slave (bytes)
system.tol2bus.pkt_count_system.cpu6.icache.mem_side::system.l2.cpu_side        18495                       # Packet count per connected master and slave (bytes)
system.tol2bus.pkt_count_system.cpu6.dcache.mem_side::system.l2.cpu_side        11906                       # Packet count per connected master and slave (bytes)
system.tol2bus.pkt_count_system.cpu6.itb_walker_cache.mem_side::system.l2.cpu_side           19                       # Packet count per connected master and slave (bytes)
system.tol2bus.pkt_count_system.cpu6.dtb_walker_cache.mem_side::system.l2.cpu_side          206                       # Packet count per connected master and slave (bytes)
system.tol2bus.pkt_count_system.cpu7.icache.mem_side::system.l2.cpu_side        31704                       # Packet count per connected master and slave (bytes)
system.tol2bus.pkt_count_system.cpu7.dcache.mem_side::system.l2.cpu_side        48084                       # Packet count per connected master and slave (bytes)
system.tol2bus.pkt_count_system.cpu7.itb_walker_cache.mem_side::system.l2.cpu_side            4                       # Packet count per connected master and slave (bytes)
system.tol2bus.pkt_count_system.cpu7.dtb_walker_cache.mem_side::system.l2.cpu_side          179                       # Packet count per connected master and slave (bytes)
system.tol2bus.pkt_count::total                651773                       # Packet count per connected master and slave (bytes)
system.tol2bus.pkt_size_system.cpu0.icache.mem_side::system.l2.cpu_side      2125184                       # Cumulative packet size per connected master and slave (bytes)
system.tol2bus.pkt_size_system.cpu0.dcache.mem_side::system.l2.cpu_side      1110378                       # Cumulative packet size per connected master and slave (bytes)
system.tol2bus.pkt_size_system.cpu0.itb_walker_cache.mem_side::system.l2.cpu_side         9536                       # Cumulative packet size per connected master and slave (bytes)
system.tol2bus.pkt_size_system.cpu0.dtb_walker_cache.mem_side::system.l2.cpu_side        11264                       # Cumulative packet size per connected master and slave (bytes)
system.tol2bus.pkt_size_system.cpu1.icache.mem_side::system.l2.cpu_side      1638016                       # Cumulative packet size per connected master and slave (bytes)
system.tol2bus.pkt_size_system.cpu1.dcache.mem_side::system.l2.cpu_side      1087326                       # Cumulative packet size per connected master and slave (bytes)
system.tol2bus.pkt_size_system.cpu1.itb_walker_cache.mem_side::system.l2.cpu_side         5952                       # Cumulative packet size per connected master and slave (bytes)
system.tol2bus.pkt_size_system.cpu1.dtb_walker_cache.mem_side::system.l2.cpu_side        10496                       # Cumulative packet size per connected master and slave (bytes)
system.tol2bus.pkt_size_system.cpu2.icache.mem_side::system.l2.cpu_side      1336704                       # Cumulative packet size per connected master and slave (bytes)
system.tol2bus.pkt_size_system.cpu2.dcache.mem_side::system.l2.cpu_side       841322                       # Cumulative packet size per connected master and slave (bytes)
system.tol2bus.pkt_size_system.cpu2.itb_walker_cache.mem_side::system.l2.cpu_side          128                       # Cumulative packet size per connected master and slave (bytes)
system.tol2bus.pkt_size_system.cpu2.dtb_walker_cache.mem_side::system.l2.cpu_side         3648                       # Cumulative packet size per connected master and slave (bytes)
system.tol2bus.pkt_size_system.cpu3.icache.mem_side::system.l2.cpu_side      1436288                       # Cumulative packet size per connected master and slave (bytes)
system.tol2bus.pkt_size_system.cpu3.dcache.mem_side::system.l2.cpu_side       926826                       # Cumulative packet size per connected master and slave (bytes)
system.tol2bus.pkt_size_system.cpu3.itb_walker_cache.mem_side::system.l2.cpu_side          704                       # Cumulative packet size per connected master and slave (bytes)
system.tol2bus.pkt_size_system.cpu3.dtb_walker_cache.mem_side::system.l2.cpu_side         5632                       # Cumulative packet size per connected master and slave (bytes)
system.tol2bus.pkt_size_system.cpu4.icache.mem_side::system.l2.cpu_side      1504384                       # Cumulative packet size per connected master and slave (bytes)
system.tol2bus.pkt_size_system.cpu4.dcache.mem_side::system.l2.cpu_side       901512                       # Cumulative packet size per connected master and slave (bytes)
system.tol2bus.pkt_size_system.cpu4.itb_walker_cache.mem_side::system.l2.cpu_side          384                       # Cumulative packet size per connected master and slave (bytes)
system.tol2bus.pkt_size_system.cpu4.dtb_walker_cache.mem_side::system.l2.cpu_side         5056                       # Cumulative packet size per connected master and slave (bytes)
system.tol2bus.pkt_size_system.cpu5.icache.mem_side::system.l2.cpu_side      1419648                       # Cumulative packet size per connected master and slave (bytes)
system.tol2bus.pkt_size_system.cpu5.dcache.mem_side::system.l2.cpu_side       824520                       # Cumulative packet size per connected master and slave (bytes)
system.tol2bus.pkt_size_system.cpu5.itb_walker_cache.mem_side::system.l2.cpu_side          320                       # Cumulative packet size per connected master and slave (bytes)
system.tol2bus.pkt_size_system.cpu5.dtb_walker_cache.mem_side::system.l2.cpu_side         5184                       # Cumulative packet size per connected master and slave (bytes)
system.tol2bus.pkt_size_system.cpu6.icache.mem_side::system.l2.cpu_side       789120                       # Cumulative packet size per connected master and slave (bytes)
system.tol2bus.pkt_size_system.cpu6.dcache.mem_side::system.l2.cpu_side       162504                       # Cumulative packet size per connected master and slave (bytes)
system.tol2bus.pkt_size_system.cpu6.itb_walker_cache.mem_side::system.l2.cpu_side          384                       # Cumulative packet size per connected master and slave (bytes)
system.tol2bus.pkt_size_system.cpu6.dtb_walker_cache.mem_side::system.l2.cpu_side         4352                       # Cumulative packet size per connected master and slave (bytes)
system.tol2bus.pkt_size_system.cpu7.icache.mem_side::system.l2.cpu_side      1352704                       # Cumulative packet size per connected master and slave (bytes)
system.tol2bus.pkt_size_system.cpu7.dcache.mem_side::system.l2.cpu_side       818986                       # Cumulative packet size per connected master and slave (bytes)
system.tol2bus.pkt_size_system.cpu7.itb_walker_cache.mem_side::system.l2.cpu_side          128                       # Cumulative packet size per connected master and slave (bytes)
system.tol2bus.pkt_size_system.cpu7.dtb_walker_cache.mem_side::system.l2.cpu_side         4160                       # Cumulative packet size per connected master and slave (bytes)
system.tol2bus.pkt_size::total               18342750                       # Cumulative packet size per connected master and slave (bytes)
system.tol2bus.snoops                          199988                       # Total snoops (count)
system.tol2bus.snoopTraffic                   6878656                       # Total snoop traffic (bytes)
system.tol2bus.snoop_fanout::samples           370848                       # Request fanout histogram
system.tol2bus.snoop_fanout::mean            2.365373                       # Request fanout histogram
system.tol2bus.snoop_fanout::stdev           2.644259                       # Request fanout histogram
system.tol2bus.snoop_fanout::underflows             0      0.00%      0.00% # Request fanout histogram
system.tol2bus.snoop_fanout::0                  96594     26.05%     26.05% # Request fanout histogram
system.tol2bus.snoop_fanout::1                 131163     35.37%     61.42% # Request fanout histogram
system.tol2bus.snoop_fanout::2                  35310      9.52%     70.94% # Request fanout histogram
system.tol2bus.snoop_fanout::3                   7631      2.06%     72.99% # Request fanout histogram
system.tol2bus.snoop_fanout::4                   5729      1.54%     74.54% # Request fanout histogram
system.tol2bus.snoop_fanout::5                   4181      1.13%     75.67% # Request fanout histogram
system.tol2bus.snoop_fanout::6                  25358      6.84%     82.50% # Request fanout histogram
system.tol2bus.snoop_fanout::7                  63003     16.99%     99.49% # Request fanout histogram
system.tol2bus.snoop_fanout::8                   1752      0.47%     99.97% # Request fanout histogram
system.tol2bus.snoop_fanout::9                     19      0.01%     99.97% # Request fanout histogram
system.tol2bus.snoop_fanout::10                    23      0.01%     99.98% # Request fanout histogram
system.tol2bus.snoop_fanout::11                     9      0.00%     99.98% # Request fanout histogram
system.tol2bus.snoop_fanout::12                    15      0.00%     99.98% # Request fanout histogram
system.tol2bus.snoop_fanout::13                    25      0.01%     99.99% # Request fanout histogram
system.tol2bus.snoop_fanout::14                    34      0.01%    100.00% # Request fanout histogram
system.tol2bus.snoop_fanout::15                     1      0.00%    100.00% # Request fanout histogram
system.tol2bus.snoop_fanout::16                     1      0.00%    100.00% # Request fanout histogram
system.tol2bus.snoop_fanout::17                     0      0.00%    100.00% # Request fanout histogram
system.tol2bus.snoop_fanout::18                     0      0.00%    100.00% # Request fanout histogram
system.tol2bus.snoop_fanout::19                     0      0.00%    100.00% # Request fanout histogram
system.tol2bus.snoop_fanout::20                     0      0.00%    100.00% # Request fanout histogram
system.tol2bus.snoop_fanout::21                     0      0.00%    100.00% # Request fanout histogram
system.tol2bus.snoop_fanout::22                     0      0.00%    100.00% # Request fanout histogram
system.tol2bus.snoop_fanout::23                     0      0.00%    100.00% # Request fanout histogram
system.tol2bus.snoop_fanout::24                     0      0.00%    100.00% # Request fanout histogram
system.tol2bus.snoop_fanout::25                     0      0.00%    100.00% # Request fanout histogram
system.tol2bus.snoop_fanout::26                     0      0.00%    100.00% # Request fanout histogram
system.tol2bus.snoop_fanout::27                     0      0.00%    100.00% # Request fanout histogram
system.tol2bus.snoop_fanout::28                     0      0.00%    100.00% # Request fanout histogram
system.tol2bus.snoop_fanout::29                     0      0.00%    100.00% # Request fanout histogram
system.tol2bus.snoop_fanout::30                     0      0.00%    100.00% # Request fanout histogram
system.tol2bus.snoop_fanout::31                     0      0.00%    100.00% # Request fanout histogram
system.tol2bus.snoop_fanout::32                     0      0.00%    100.00% # Request fanout histogram
system.tol2bus.snoop_fanout::overflows              0      0.00%    100.00% # Request fanout histogram
system.tol2bus.snoop_fanout::min_value              0                       # Request fanout histogram
system.tol2bus.snoop_fanout::max_value             16                       # Request fanout histogram
system.tol2bus.snoop_fanout::total             370848                       # Request fanout histogram
system.tol2bus.reqLayer0.occupancy          372180499                       # Layer occupancy (ticks)
system.tol2bus.reqLayer0.utilization              0.0                       # Layer utilization (%)
system.tol2bus.snoopLayer0.occupancy           136486                       # Layer occupancy (ticks)
system.tol2bus.snoopLayer0.utilization            0.0                       # Layer utilization (%)
system.tol2bus.respLayer0.occupancy          24604500                       # Layer occupancy (ticks)
system.tol2bus.respLayer0.utilization             0.0                       # Layer utilization (%)
system.tol2bus.respLayer1.occupancy          36423499                       # Layer occupancy (ticks)
system.tol2bus.respLayer1.utilization             0.0                       # Layer utilization (%)
system.tol2bus.respLayer2.occupancy            169500                       # Layer occupancy (ticks)
system.tol2bus.respLayer2.utilization             0.0                       # Layer utilization (%)
system.tol2bus.respLayer3.occupancy            273000                       # Layer occupancy (ticks)
system.tol2bus.respLayer3.utilization             0.0                       # Layer utilization (%)
system.tol2bus.respLayer4.occupancy          19196498                       # Layer occupancy (ticks)
system.tol2bus.respLayer4.utilization             0.0                       # Layer utilization (%)
system.tol2bus.respLayer5.occupancy          35727499                       # Layer occupancy (ticks)
system.tol2bus.respLayer5.utilization             0.0                       # Layer utilization (%)
system.tol2bus.respLayer6.occupancy            171000                       # Layer occupancy (ticks)
system.tol2bus.respLayer6.utilization             0.0                       # Layer utilization (%)
system.tol2bus.respLayer7.occupancy            243000                       # Layer occupancy (ticks)
system.tol2bus.respLayer7.utilization             0.0                       # Layer utilization (%)
system.tol2bus.respLayer8.occupancy          15664999                       # Layer occupancy (ticks)
system.tol2bus.respLayer8.utilization             0.0                       # Layer utilization (%)
system.tol2bus.respLayer9.occupancy          35438499                       # Layer occupancy (ticks)
system.tol2bus.respLayer9.utilization             0.0                       # Layer utilization (%)
system.tol2bus.respLayer10.occupancy             3000                       # Layer occupancy (ticks)
system.tol2bus.respLayer10.utilization            0.0                       # Layer utilization (%)
system.tol2bus.respLayer11.occupancy            85500                       # Layer occupancy (ticks)
system.tol2bus.respLayer11.utilization            0.0                       # Layer utilization (%)
system.tol2bus.respLayer12.occupancy         16831500                       # Layer occupancy (ticks)
system.tol2bus.respLayer12.utilization            0.0                       # Layer utilization (%)
system.tol2bus.respLayer13.occupancy         37263500                       # Layer occupancy (ticks)
system.tol2bus.respLayer13.utilization            0.0                       # Layer utilization (%)
system.tol2bus.respLayer14.occupancy            18000                       # Layer occupancy (ticks)
system.tol2bus.respLayer14.utilization            0.0                       # Layer utilization (%)
system.tol2bus.respLayer15.occupancy           139500                       # Layer occupancy (ticks)
system.tol2bus.respLayer15.utilization            0.0                       # Layer utilization (%)
system.tol2bus.respLayer16.occupancy         17629500                       # Layer occupancy (ticks)
system.tol2bus.respLayer16.utilization            0.0                       # Layer utilization (%)
system.tol2bus.respLayer17.occupancy         36661497                       # Layer occupancy (ticks)
system.tol2bus.respLayer17.utilization            0.0                       # Layer utilization (%)
system.tol2bus.respLayer18.occupancy            15000                       # Layer occupancy (ticks)
system.tol2bus.respLayer18.utilization            0.0                       # Layer utilization (%)
system.tol2bus.respLayer19.occupancy           132000                       # Layer occupancy (ticks)
system.tol2bus.respLayer19.utilization            0.0                       # Layer utilization (%)
system.tol2bus.respLayer20.occupancy         16637498                       # Layer occupancy (ticks)
system.tol2bus.respLayer20.utilization            0.0                       # Layer utilization (%)
system.tol2bus.respLayer21.occupancy         32831497                       # Layer occupancy (ticks)
system.tol2bus.respLayer21.utilization            0.0                       # Layer utilization (%)
system.tol2bus.respLayer22.occupancy            10500                       # Layer occupancy (ticks)
system.tol2bus.respLayer22.utilization            0.0                       # Layer utilization (%)
system.tol2bus.respLayer23.occupancy           144000                       # Layer occupancy (ticks)
system.tol2bus.respLayer23.utilization            0.0                       # Layer utilization (%)
system.tol2bus.respLayer24.occupancy          9248498                       # Layer occupancy (ticks)
system.tol2bus.respLayer24.utilization            0.0                       # Layer utilization (%)
system.tol2bus.respLayer25.occupancy          9556496                       # Layer occupancy (ticks)
system.tol2bus.respLayer25.utilization            0.0                       # Layer utilization (%)
system.tol2bus.respLayer26.occupancy            10500                       # Layer occupancy (ticks)
system.tol2bus.respLayer26.utilization            0.0                       # Layer utilization (%)
system.tol2bus.respLayer27.occupancy           114000                       # Layer occupancy (ticks)
system.tol2bus.respLayer27.utilization            0.0                       # Layer utilization (%)
system.tol2bus.respLayer28.occupancy         15852998                       # Layer occupancy (ticks)
system.tol2bus.respLayer28.utilization            0.0                       # Layer utilization (%)
system.tol2bus.respLayer29.occupancy         33694996                       # Layer occupancy (ticks)
system.tol2bus.respLayer29.utilization            0.0                       # Layer utilization (%)
system.tol2bus.respLayer30.occupancy             3000                       # Layer occupancy (ticks)
system.tol2bus.respLayer30.utilization            0.0                       # Layer utilization (%)
system.tol2bus.respLayer31.occupancy            99000                       # Layer occupancy (ticks)
system.tol2bus.respLayer31.utilization            0.0                       # Layer utilization (%)

---------- End Simulation Statistics   ----------
