
---------- Begin Simulation Statistics ----------
sim_seconds                                  0.105686                       # Number of seconds simulated
sim_ticks                                105685940000                       # Number of ticks simulated
final_tick                               105685940000                       # Number of ticks from beginning of simulation (restored from checkpoints and never reset)
sim_freq                                 1000000000000                       # Frequency of simulated ticks
host_inst_rate                                  69640                       # Simulator instruction rate (inst/s)
host_op_rate                                    72460                       # Simulator op (including micro ops) rate (op/s)
host_tick_rate                               18274142                       # Simulator tick rate (ticks/s)
host_mem_usage                                 666344                       # Number of bytes of host memory used
host_seconds                                  5783.36                       # Real time elapsed on the host
sim_insts                                   402752520                       # Number of instructions simulated
sim_ops                                     419059513                       # Number of ops (including micro ops) simulated
system.voltage_domain.voltage                       1                       # Voltage in Volts
system.clk_domain.clock                          1000                       # Clock period in ticks
system.mem_ctrls.pwrStateResidencyTicks::UNDEFINED 105685940000                       # Cumulative time (in ticks) in various power states
system.mem_ctrls.bytes_read::cpu.inst           71040                       # Number of bytes read from this memory
system.mem_ctrls.bytes_read::cpu.data           32832                       # Number of bytes read from this memory
system.mem_ctrls.bytes_read::l2.prefetcher        97536                       # Number of bytes read from this memory
system.mem_ctrls.bytes_read::total             201408                       # Number of bytes read from this memory
system.mem_ctrls.bytes_inst_read::cpu.inst        71040                       # Number of instructions bytes read from this memory
system.mem_ctrls.bytes_inst_read::total         71040                       # Number of instructions bytes read from this memory
system.mem_ctrls.num_reads::cpu.inst             1110                       # Number of read requests responded to by this memory
system.mem_ctrls.num_reads::cpu.data              513                       # Number of read requests responded to by this memory
system.mem_ctrls.num_reads::l2.prefetcher         1524                       # Number of read requests responded to by this memory
system.mem_ctrls.num_reads::total                3147                       # Number of read requests responded to by this memory
system.mem_ctrls.bw_read::cpu.inst             672180                       # Total read bandwidth from this memory (bytes/s)
system.mem_ctrls.bw_read::cpu.data             310656                       # Total read bandwidth from this memory (bytes/s)
system.mem_ctrls.bw_read::l2.prefetcher        922885                       # Total read bandwidth from this memory (bytes/s)
system.mem_ctrls.bw_read::total               1905722                       # Total read bandwidth from this memory (bytes/s)
system.mem_ctrls.bw_inst_read::cpu.inst        672180                       # Instruction read bandwidth from this memory (bytes/s)
system.mem_ctrls.bw_inst_read::total           672180                       # Instruction read bandwidth from this memory (bytes/s)
system.mem_ctrls.bw_total::cpu.inst            672180                       # Total bandwidth to/from this memory (bytes/s)
system.mem_ctrls.bw_total::cpu.data            310656                       # Total bandwidth to/from this memory (bytes/s)
system.mem_ctrls.bw_total::l2.prefetcher       922885                       # Total bandwidth to/from this memory (bytes/s)
system.mem_ctrls.bw_total::total              1905722                       # Total bandwidth to/from this memory (bytes/s)
system.mem_ctrls.readReqs                        3147                       # Number of read requests accepted
system.mem_ctrls.writeReqs                          0                       # Number of write requests accepted
system.mem_ctrls.readBursts                      3147                       # Number of DRAM read bursts, including those serviced by the write queue
system.mem_ctrls.writeBursts                        0                       # Number of DRAM write bursts, including those merged in the write queue
system.mem_ctrls.bytesReadDRAM                 201408                       # Total number of bytes read from DRAM
system.mem_ctrls.bytesReadWrQ                       0                       # Total number of bytes read from write queue
system.mem_ctrls.bytesWritten                       0                       # Total number of bytes written to DRAM
system.mem_ctrls.bytesReadSys                  201408                       # Total read bytes from the system interface side
system.mem_ctrls.bytesWrittenSys                    0                       # Total written bytes from the system interface side
system.mem_ctrls.servicedByWrQ                      0                       # Number of DRAM read bursts serviced by the write queue
system.mem_ctrls.mergedWrBursts                     0                       # Number of DRAM write bursts merged with an existing one
system.mem_ctrls.neitherReadNorWriteReqs            0                       # Number of requests that are neither read nor write
system.mem_ctrls.perBankRdBursts::0               126                       # Per bank write bursts
system.mem_ctrls.perBankRdBursts::1               160                       # Per bank write bursts
system.mem_ctrls.perBankRdBursts::2               227                       # Per bank write bursts
system.mem_ctrls.perBankRdBursts::3               201                       # Per bank write bursts
system.mem_ctrls.perBankRdBursts::4               252                       # Per bank write bursts
system.mem_ctrls.perBankRdBursts::5               282                       # Per bank write bursts
system.mem_ctrls.perBankRdBursts::6               201                       # Per bank write bursts
system.mem_ctrls.perBankRdBursts::7               207                       # Per bank write bursts
system.mem_ctrls.perBankRdBursts::8               234                       # Per bank write bursts
system.mem_ctrls.perBankRdBursts::9               140                       # Per bank write bursts
system.mem_ctrls.perBankRdBursts::10              245                       # Per bank write bursts
system.mem_ctrls.perBankRdBursts::11              151                       # Per bank write bursts
system.mem_ctrls.perBankRdBursts::12              207                       # Per bank write bursts
system.mem_ctrls.perBankRdBursts::13              409                       # Per bank write bursts
system.mem_ctrls.perBankRdBursts::14               71                       # Per bank write bursts
system.mem_ctrls.perBankRdBursts::15               34                       # Per bank write bursts
system.mem_ctrls.perBankWrBursts::0                 0                       # Per bank write bursts
system.mem_ctrls.perBankWrBursts::1                 0                       # Per bank write bursts
system.mem_ctrls.perBankWrBursts::2                 0                       # Per bank write bursts
system.mem_ctrls.perBankWrBursts::3                 0                       # Per bank write bursts
system.mem_ctrls.perBankWrBursts::4                 0                       # Per bank write bursts
system.mem_ctrls.perBankWrBursts::5                 0                       # Per bank write bursts
system.mem_ctrls.perBankWrBursts::6                 0                       # Per bank write bursts
system.mem_ctrls.perBankWrBursts::7                 0                       # Per bank write bursts
system.mem_ctrls.perBankWrBursts::8                 0                       # Per bank write bursts
system.mem_ctrls.perBankWrBursts::9                 0                       # Per bank write bursts
system.mem_ctrls.perBankWrBursts::10                0                       # Per bank write bursts
system.mem_ctrls.perBankWrBursts::11                0                       # Per bank write bursts
system.mem_ctrls.perBankWrBursts::12                0                       # Per bank write bursts
system.mem_ctrls.perBankWrBursts::13                0                       # Per bank write bursts
system.mem_ctrls.perBankWrBursts::14                0                       # Per bank write bursts
system.mem_ctrls.perBankWrBursts::15                0                       # Per bank write bursts
system.mem_ctrls.numRdRetry                         0                       # Number of times read queue was full causing retry
system.mem_ctrls.numWrRetry                         0                       # Number of times write queue was full causing retry
system.mem_ctrls.totGap                  105685875500                       # Total gap between requests
system.mem_ctrls.readPktSize::0                     0                       # Read request sizes (log2)
system.mem_ctrls.readPktSize::1                     0                       # Read request sizes (log2)
system.mem_ctrls.readPktSize::2                     0                       # Read request sizes (log2)
system.mem_ctrls.readPktSize::3                     0                       # Read request sizes (log2)
system.mem_ctrls.readPktSize::4                     0                       # Read request sizes (log2)
system.mem_ctrls.readPktSize::5                     0                       # Read request sizes (log2)
system.mem_ctrls.readPktSize::6                  3147                       # Read request sizes (log2)
system.mem_ctrls.writePktSize::0                    0                       # Write request sizes (log2)
system.mem_ctrls.writePktSize::1                    0                       # Write request sizes (log2)
system.mem_ctrls.writePktSize::2                    0                       # Write request sizes (log2)
system.mem_ctrls.writePktSize::3                    0                       # Write request sizes (log2)
system.mem_ctrls.writePktSize::4                    0                       # Write request sizes (log2)
system.mem_ctrls.writePktSize::5                    0                       # Write request sizes (log2)
system.mem_ctrls.writePktSize::6                    0                       # Write request sizes (log2)
system.mem_ctrls.rdQLenPdf::0                    1257                       # What read queue length does an incoming req see
system.mem_ctrls.rdQLenPdf::1                    1231                       # What read queue length does an incoming req see
system.mem_ctrls.rdQLenPdf::2                     297                       # What read queue length does an incoming req see
system.mem_ctrls.rdQLenPdf::3                     139                       # What read queue length does an incoming req see
system.mem_ctrls.rdQLenPdf::4                      77                       # What read queue length does an incoming req see
system.mem_ctrls.rdQLenPdf::5                      46                       # What read queue length does an incoming req see
system.mem_ctrls.rdQLenPdf::6                      33                       # What read queue length does an incoming req see
system.mem_ctrls.rdQLenPdf::7                      32                       # What read queue length does an incoming req see
system.mem_ctrls.rdQLenPdf::8                      27                       # What read queue length does an incoming req see
system.mem_ctrls.rdQLenPdf::9                       3                       # What read queue length does an incoming req see
system.mem_ctrls.rdQLenPdf::10                      3                       # What read queue length does an incoming req see
system.mem_ctrls.rdQLenPdf::11                      2                       # What read queue length does an incoming req see
system.mem_ctrls.rdQLenPdf::12                      0                       # What read queue length does an incoming req see
system.mem_ctrls.rdQLenPdf::13                      0                       # What read queue length does an incoming req see
system.mem_ctrls.rdQLenPdf::14                      0                       # What read queue length does an incoming req see
system.mem_ctrls.rdQLenPdf::15                      0                       # What read queue length does an incoming req see
system.mem_ctrls.rdQLenPdf::16                      0                       # What read queue length does an incoming req see
system.mem_ctrls.rdQLenPdf::17                      0                       # What read queue length does an incoming req see
system.mem_ctrls.rdQLenPdf::18                      0                       # What read queue length does an incoming req see
system.mem_ctrls.rdQLenPdf::19                      0                       # What read queue length does an incoming req see
system.mem_ctrls.rdQLenPdf::20                      0                       # What read queue length does an incoming req see
system.mem_ctrls.rdQLenPdf::21                      0                       # What read queue length does an incoming req see
system.mem_ctrls.rdQLenPdf::22                      0                       # What read queue length does an incoming req see
system.mem_ctrls.rdQLenPdf::23                      0                       # What read queue length does an incoming req see
system.mem_ctrls.rdQLenPdf::24                      0                       # What read queue length does an incoming req see
system.mem_ctrls.rdQLenPdf::25                      0                       # What read queue length does an incoming req see
system.mem_ctrls.rdQLenPdf::26                      0                       # What read queue length does an incoming req see
system.mem_ctrls.rdQLenPdf::27                      0                       # What read queue length does an incoming req see
system.mem_ctrls.rdQLenPdf::28                      0                       # What read queue length does an incoming req see
system.mem_ctrls.rdQLenPdf::29                      0                       # What read queue length does an incoming req see
system.mem_ctrls.rdQLenPdf::30                      0                       # What read queue length does an incoming req see
system.mem_ctrls.rdQLenPdf::31                      0                       # What read queue length does an incoming req see
system.mem_ctrls.wrQLenPdf::0                       0                       # What write queue length does an incoming req see
system.mem_ctrls.wrQLenPdf::1                       0                       # What write queue length does an incoming req see
system.mem_ctrls.wrQLenPdf::2                       0                       # What write queue length does an incoming req see
system.mem_ctrls.wrQLenPdf::3                       0                       # What write queue length does an incoming req see
system.mem_ctrls.wrQLenPdf::4                       0                       # What write queue length does an incoming req see
system.mem_ctrls.wrQLenPdf::5                       0                       # What write queue length does an incoming req see
system.mem_ctrls.wrQLenPdf::6                       0                       # What write queue length does an incoming req see
system.mem_ctrls.wrQLenPdf::7                       0                       # What write queue length does an incoming req see
system.mem_ctrls.wrQLenPdf::8                       0                       # What write queue length does an incoming req see
system.mem_ctrls.wrQLenPdf::9                       0                       # What write queue length does an incoming req see
system.mem_ctrls.wrQLenPdf::10                      0                       # What write queue length does an incoming req see
system.mem_ctrls.wrQLenPdf::11                      0                       # What write queue length does an incoming req see
system.mem_ctrls.wrQLenPdf::12                      0                       # What write queue length does an incoming req see
system.mem_ctrls.wrQLenPdf::13                      0                       # What write queue length does an incoming req see
system.mem_ctrls.wrQLenPdf::14                      0                       # What write queue length does an incoming req see
system.mem_ctrls.wrQLenPdf::15                      0                       # What write queue length does an incoming req see
system.mem_ctrls.wrQLenPdf::16                      0                       # What write queue length does an incoming req see
system.mem_ctrls.wrQLenPdf::17                      0                       # What write queue length does an incoming req see
system.mem_ctrls.wrQLenPdf::18                      0                       # What write queue length does an incoming req see
system.mem_ctrls.wrQLenPdf::19                      0                       # What write queue length does an incoming req see
system.mem_ctrls.wrQLenPdf::20                      0                       # What write queue length does an incoming req see
system.mem_ctrls.wrQLenPdf::21                      0                       # What write queue length does an incoming req see
system.mem_ctrls.wrQLenPdf::22                      0                       # What write queue length does an incoming req see
system.mem_ctrls.wrQLenPdf::23                      0                       # What write queue length does an incoming req see
system.mem_ctrls.wrQLenPdf::24                      0                       # What write queue length does an incoming req see
system.mem_ctrls.wrQLenPdf::25                      0                       # What write queue length does an incoming req see
system.mem_ctrls.wrQLenPdf::26                      0                       # What write queue length does an incoming req see
system.mem_ctrls.wrQLenPdf::27                      0                       # What write queue length does an incoming req see
system.mem_ctrls.wrQLenPdf::28                      0                       # What write queue length does an incoming req see
system.mem_ctrls.wrQLenPdf::29                      0                       # What write queue length does an incoming req see
system.mem_ctrls.wrQLenPdf::30                      0                       # What write queue length does an incoming req see
system.mem_ctrls.wrQLenPdf::31                      0                       # What write queue length does an incoming req see
system.mem_ctrls.wrQLenPdf::32                      0                       # What write queue length does an incoming req see
system.mem_ctrls.wrQLenPdf::33                      0                       # What write queue length does an incoming req see
system.mem_ctrls.wrQLenPdf::34                      0                       # What write queue length does an incoming req see
system.mem_ctrls.wrQLenPdf::35                      0                       # What write queue length does an incoming req see
system.mem_ctrls.wrQLenPdf::36                      0                       # What write queue length does an incoming req see
system.mem_ctrls.wrQLenPdf::37                      0                       # What write queue length does an incoming req see
system.mem_ctrls.wrQLenPdf::38                      0                       # What write queue length does an incoming req see
system.mem_ctrls.wrQLenPdf::39                      0                       # What write queue length does an incoming req see
system.mem_ctrls.wrQLenPdf::40                      0                       # What write queue length does an incoming req see
system.mem_ctrls.wrQLenPdf::41                      0                       # What write queue length does an incoming req see
system.mem_ctrls.wrQLenPdf::42                      0                       # What write queue length does an incoming req see
system.mem_ctrls.wrQLenPdf::43                      0                       # What write queue length does an incoming req see
system.mem_ctrls.wrQLenPdf::44                      0                       # What write queue length does an incoming req see
system.mem_ctrls.wrQLenPdf::45                      0                       # What write queue length does an incoming req see
system.mem_ctrls.wrQLenPdf::46                      0                       # What write queue length does an incoming req see
system.mem_ctrls.wrQLenPdf::47                      0                       # What write queue length does an incoming req see
system.mem_ctrls.wrQLenPdf::48                      0                       # What write queue length does an incoming req see
system.mem_ctrls.wrQLenPdf::49                      0                       # What write queue length does an incoming req see
system.mem_ctrls.wrQLenPdf::50                      0                       # What write queue length does an incoming req see
system.mem_ctrls.wrQLenPdf::51                      0                       # What write queue length does an incoming req see
system.mem_ctrls.wrQLenPdf::52                      0                       # What write queue length does an incoming req see
system.mem_ctrls.wrQLenPdf::53                      0                       # What write queue length does an incoming req see
system.mem_ctrls.wrQLenPdf::54                      0                       # What write queue length does an incoming req see
system.mem_ctrls.wrQLenPdf::55                      0                       # What write queue length does an incoming req see
system.mem_ctrls.wrQLenPdf::56                      0                       # What write queue length does an incoming req see
system.mem_ctrls.wrQLenPdf::57                      0                       # What write queue length does an incoming req see
system.mem_ctrls.wrQLenPdf::58                      0                       # What write queue length does an incoming req see
system.mem_ctrls.wrQLenPdf::59                      0                       # What write queue length does an incoming req see
system.mem_ctrls.wrQLenPdf::60                      0                       # What write queue length does an incoming req see
system.mem_ctrls.wrQLenPdf::61                      0                       # What write queue length does an incoming req see
system.mem_ctrls.wrQLenPdf::62                      0                       # What write queue length does an incoming req see
system.mem_ctrls.wrQLenPdf::63                      0                       # What write queue length does an incoming req see
system.mem_ctrls.bytesPerActivate::samples          554                       # Bytes accessed per row activation
system.mem_ctrls.bytesPerActivate::mean    360.664260                       # Bytes accessed per row activation
system.mem_ctrls.bytesPerActivate::gmean   197.150327                       # Bytes accessed per row activation
system.mem_ctrls.bytesPerActivate::stdev   378.720515                       # Bytes accessed per row activation
system.mem_ctrls.bytesPerActivate::0-127          217     39.17%     39.17% # Bytes accessed per row activation
system.mem_ctrls.bytesPerActivate::128-255          104     18.77%     57.94% # Bytes accessed per row activation
system.mem_ctrls.bytesPerActivate::256-383           46      8.30%     66.25% # Bytes accessed per row activation
system.mem_ctrls.bytesPerActivate::384-511           29      5.23%     71.48% # Bytes accessed per row activation
system.mem_ctrls.bytesPerActivate::512-639           16      2.89%     74.37% # Bytes accessed per row activation
system.mem_ctrls.bytesPerActivate::640-767           16      2.89%     77.26% # Bytes accessed per row activation
system.mem_ctrls.bytesPerActivate::768-895            5      0.90%     78.16% # Bytes accessed per row activation
system.mem_ctrls.bytesPerActivate::896-1023            9      1.62%     79.78% # Bytes accessed per row activation
system.mem_ctrls.bytesPerActivate::1024-1151          112     20.22%    100.00% # Bytes accessed per row activation
system.mem_ctrls.bytesPerActivate::total          554                       # Bytes accessed per row activation
system.mem_ctrls.totQLat                    127167897                       # Total ticks spent queuing
system.mem_ctrls.totMemAccLat               186174147                       # Total ticks spent from burst creation until serviced by the DRAM
system.mem_ctrls.totBusLat                   15735000                       # Total ticks spent in databus transfers
system.mem_ctrls.avgQLat                     40409.25                       # Average queueing delay per DRAM burst
system.mem_ctrls.avgBusLat                    5000.00                       # Average bus latency per DRAM burst
system.mem_ctrls.avgMemAccLat                59159.25                       # Average memory access latency per DRAM burst
system.mem_ctrls.avgRdBW                         1.91                       # Average DRAM read bandwidth in MiByte/s
system.mem_ctrls.avgWrBW                         0.00                       # Average achieved write bandwidth in MiByte/s
system.mem_ctrls.avgRdBWSys                      1.91                       # Average system read bandwidth in MiByte/s
system.mem_ctrls.avgWrBWSys                      0.00                       # Average system write bandwidth in MiByte/s
system.mem_ctrls.peakBW                      12800.00                       # Theoretical peak bandwidth in MiByte/s
system.mem_ctrls.busUtil                         0.01                       # Data bus utilization in percentage
system.mem_ctrls.busUtilRead                     0.01                       # Data bus utilization in percentage for reads
system.mem_ctrls.busUtilWrite                    0.00                       # Data bus utilization in percentage for writes
system.mem_ctrls.avgRdQLen                       1.06                       # Average read queue length when enqueuing
system.mem_ctrls.avgWrQLen                       0.00                       # Average write queue length when enqueuing
system.mem_ctrls.readRowHits                     2588                       # Number of row buffer hits during reads
system.mem_ctrls.writeRowHits                       0                       # Number of row buffer hits during writes
system.mem_ctrls.readRowHitRate                 82.24                       # Row buffer hit rate for reads
system.mem_ctrls.writeRowHitRate                  nan                       # Row buffer hit rate for writes
system.mem_ctrls.avgGap                   33583055.45                       # Average gap between requests
system.mem_ctrls.pageHitRate                    82.24                       # Row buffer hit rate, read and write combined
system.mem_ctrls_0.actEnergy                  1842120                       # Energy for activate commands per rank (pJ)
system.mem_ctrls_0.preEnergy                   967725                       # Energy for precharge commands per rank (pJ)
system.mem_ctrls_0.readEnergy                11823840                       # Energy for read commands per rank (pJ)
system.mem_ctrls_0.writeEnergy                      0                       # Energy for write commands per rank (pJ)
system.mem_ctrls_0.refreshEnergy         127845120.000000                       # Energy for refresh commands per rank (pJ)
system.mem_ctrls_0.actBackEnergy             37873650                       # Energy for active background per rank (pJ)
system.mem_ctrls_0.preBackEnergy              8136000                       # Energy for precharge background per rank (pJ)
system.mem_ctrls_0.actPowerDownEnergy       257143530                       # Energy for active power-down per rank (pJ)
system.mem_ctrls_0.prePowerDownEnergy       196065600                       # Energy for precharge power-down per rank (pJ)
system.mem_ctrls_0.selfRefreshEnergy      25115414040                       # Energy for self refresh per rank (pJ)
system.mem_ctrls_0.totalEnergy            25757116905                       # Total energy per rank (pJ)
system.mem_ctrls_0.averagePower            243.713751                       # Core power per rank (mW)
system.mem_ctrls_0.totalIdleTime         105581644533                       # Total Idle time Per DRAM Rank
system.mem_ctrls_0.memoryStateTime::IDLE     16639000                       # Time in different power states
system.mem_ctrls_0.memoryStateTime::REF      54446000                       # Time in different power states
system.mem_ctrls_0.memoryStateTime::SREF 104507183750                       # Time in different power states
system.mem_ctrls_0.memoryStateTime::PRE_PDN    510590743                       # Time in different power states
system.mem_ctrls_0.memoryStateTime::ACT      33177717                       # Time in different power states
system.mem_ctrls_0.memoryStateTime::ACT_PDN    563902790                       # Time in different power states
system.mem_ctrls_1.actEnergy                  2149140                       # Energy for activate commands per rank (pJ)
system.mem_ctrls_1.preEnergy                  1134705                       # Energy for precharge commands per rank (pJ)
system.mem_ctrls_1.readEnergy                10645740                       # Energy for read commands per rank (pJ)
system.mem_ctrls_1.writeEnergy                      0                       # Energy for write commands per rank (pJ)
system.mem_ctrls_1.refreshEnergy         210821520.000000                       # Energy for refresh commands per rank (pJ)
system.mem_ctrls_1.actBackEnergy             51972030                       # Energy for active background per rank (pJ)
system.mem_ctrls_1.preBackEnergy             13786560                       # Energy for precharge background per rank (pJ)
system.mem_ctrls_1.actPowerDownEnergy       429367320                       # Energy for active power-down per rank (pJ)
system.mem_ctrls_1.prePowerDownEnergy       314919840                       # Energy for precharge power-down per rank (pJ)
system.mem_ctrls_1.selfRefreshEnergy      24963832800                       # Energy for self refresh per rank (pJ)
system.mem_ctrls_1.totalEnergy            25998629655                       # Total energy per rank (pJ)
system.mem_ctrls_1.averagePower            245.998944                       # Core power per rank (mW)
system.mem_ctrls_1.totalIdleTime         105535472797                       # Total Idle time Per DRAM Rank
system.mem_ctrls_1.memoryStateTime::IDLE     28602500                       # Time in different power states
system.mem_ctrls_1.memoryStateTime::REF      89810000                       # Time in different power states
system.mem_ctrls_1.memoryStateTime::SREF 103774366000                       # Time in different power states
system.mem_ctrls_1.memoryStateTime::PRE_PDN    820102500                       # Time in different power states
system.mem_ctrls_1.memoryStateTime::ACT      31450453                       # Time in different power states
system.mem_ctrls_1.memoryStateTime::ACT_PDN    941608547                       # Time in different power states
system.pwrStateResidencyTicks::UNDEFINED 105685940000                       # Cumulative time (in ticks) in various power states
system.cpu.branchPred.lookups                53286477                       # Number of BP lookups
system.cpu.branchPred.condPredicted          46176114                       # Number of conditional branches predicted
system.cpu.branchPred.condIncorrect            855994                       # Number of conditional branches incorrect
system.cpu.branchPred.BTBLookups             39995214                       # Number of BTB lookups
system.cpu.branchPred.BTBHits                39061658                       # Number of BTB hits
system.cpu.branchPred.BTBCorrect                    0                       # Number of correct BTB predictions (this stat may not work properly.
system.cpu.branchPred.BTBHitPct             97.665831                       # BTB Hit Percentage
system.cpu.branchPred.usedRAS                 3073672                       # Number of times the RAS was used to get a target.
system.cpu.branchPred.RASInCorrect              82387                       # Number of incorrect RAS predictions.
system.cpu.branchPred.indirectLookups          214538                       # Number of indirect predictor lookups.
system.cpu.branchPred.indirectHits             213843                       # Number of indirect target hits.
system.cpu.branchPred.indirectMisses              695                       # Number of indirect misses.
system.cpu.branchPredindirectMispredicted          613                       # Number of mispredicted indirect branches.
system.cpu_voltage_domain.voltage                   1                       # Voltage in Volts
system.cpu_clk_domain.clock                       500                       # Clock period in ticks
system.cpu.dstage2_mmu.stage2_tlb.walker.pwrStateResidencyTicks::UNDEFINED 105685940000                       # Cumulative time (in ticks) in various power states
system.cpu.dstage2_mmu.stage2_tlb.walker.walks            0                       # Table walker walks requested
system.cpu.dstage2_mmu.stage2_tlb.walker.walkRequestOrigin_Requested::Data            0                       # Table walker requests started/completed, data/inst
system.cpu.dstage2_mmu.stage2_tlb.walker.walkRequestOrigin_Requested::Inst            0                       # Table walker requests started/completed, data/inst
system.cpu.dstage2_mmu.stage2_tlb.walker.walkRequestOrigin_Requested::total            0                       # Table walker requests started/completed, data/inst
system.cpu.dstage2_mmu.stage2_tlb.walker.walkRequestOrigin_Completed::Data            0                       # Table walker requests started/completed, data/inst
system.cpu.dstage2_mmu.stage2_tlb.walker.walkRequestOrigin_Completed::Inst            0                       # Table walker requests started/completed, data/inst
system.cpu.dstage2_mmu.stage2_tlb.walker.walkRequestOrigin_Completed::total            0                       # Table walker requests started/completed, data/inst
system.cpu.dstage2_mmu.stage2_tlb.walker.walkRequestOrigin::total            0                       # Table walker requests started/completed, data/inst
system.cpu.dstage2_mmu.stage2_tlb.inst_hits            0                       # ITB inst hits
system.cpu.dstage2_mmu.stage2_tlb.inst_misses            0                       # ITB inst misses
system.cpu.dstage2_mmu.stage2_tlb.read_hits            0                       # DTB read hits
system.cpu.dstage2_mmu.stage2_tlb.read_misses            0                       # DTB read misses
system.cpu.dstage2_mmu.stage2_tlb.write_hits            0                       # DTB write hits
system.cpu.dstage2_mmu.stage2_tlb.write_misses            0                       # DTB write misses
system.cpu.dstage2_mmu.stage2_tlb.flush_tlb            0                       # Number of times complete TLB was flushed
system.cpu.dstage2_mmu.stage2_tlb.flush_tlb_mva            0                       # Number of times TLB was flushed by MVA
system.cpu.dstage2_mmu.stage2_tlb.flush_tlb_mva_asid            0                       # Number of times TLB was flushed by MVA & ASID
system.cpu.dstage2_mmu.stage2_tlb.flush_tlb_asid            0                       # Number of times TLB was flushed by ASID
system.cpu.dstage2_mmu.stage2_tlb.flush_entries            0                       # Number of entries that have been flushed from TLB
system.cpu.dstage2_mmu.stage2_tlb.align_faults            0                       # Number of TLB faults due to alignment restrictions
system.cpu.dstage2_mmu.stage2_tlb.prefetch_faults            0                       # Number of TLB faults due to prefetch
system.cpu.dstage2_mmu.stage2_tlb.domain_faults            0                       # Number of TLB faults due to domain restrictions
system.cpu.dstage2_mmu.stage2_tlb.perms_faults            0                       # Number of TLB faults due to permissions restrictions
system.cpu.dstage2_mmu.stage2_tlb.read_accesses            0                       # DTB read accesses
system.cpu.dstage2_mmu.stage2_tlb.write_accesses            0                       # DTB write accesses
system.cpu.dstage2_mmu.stage2_tlb.inst_accesses            0                       # ITB inst accesses
system.cpu.dstage2_mmu.stage2_tlb.hits              0                       # DTB hits
system.cpu.dstage2_mmu.stage2_tlb.misses            0                       # DTB misses
system.cpu.dstage2_mmu.stage2_tlb.accesses            0                       # DTB accesses
system.cpu.dtb.walker.pwrStateResidencyTicks::UNDEFINED 105685940000                       # Cumulative time (in ticks) in various power states
system.cpu.dtb.walker.walks                         0                       # Table walker walks requested
system.cpu.dtb.walker.walkRequestOrigin_Requested::Data            0                       # Table walker requests started/completed, data/inst
system.cpu.dtb.walker.walkRequestOrigin_Requested::Inst            0                       # Table walker requests started/completed, data/inst
system.cpu.dtb.walker.walkRequestOrigin_Requested::total            0                       # Table walker requests started/completed, data/inst
system.cpu.dtb.walker.walkRequestOrigin_Completed::Data            0                       # Table walker requests started/completed, data/inst
system.cpu.dtb.walker.walkRequestOrigin_Completed::Inst            0                       # Table walker requests started/completed, data/inst
system.cpu.dtb.walker.walkRequestOrigin_Completed::total            0                       # Table walker requests started/completed, data/inst
system.cpu.dtb.walker.walkRequestOrigin::total            0                       # Table walker requests started/completed, data/inst
system.cpu.dtb.inst_hits                            0                       # ITB inst hits
system.cpu.dtb.inst_misses                          0                       # ITB inst misses
system.cpu.dtb.read_hits                            0                       # DTB read hits
system.cpu.dtb.read_misses                          0                       # DTB read misses
system.cpu.dtb.write_hits                           0                       # DTB write hits
system.cpu.dtb.write_misses                         0                       # DTB write misses
system.cpu.dtb.flush_tlb                            0                       # Number of times complete TLB was flushed
system.cpu.dtb.flush_tlb_mva                        0                       # Number of times TLB was flushed by MVA
system.cpu.dtb.flush_tlb_mva_asid                   0                       # Number of times TLB was flushed by MVA & ASID
system.cpu.dtb.flush_tlb_asid                       0                       # Number of times TLB was flushed by ASID
system.cpu.dtb.flush_entries                        0                       # Number of entries that have been flushed from TLB
system.cpu.dtb.align_faults                         0                       # Number of TLB faults due to alignment restrictions
system.cpu.dtb.prefetch_faults                      0                       # Number of TLB faults due to prefetch
system.cpu.dtb.domain_faults                        0                       # Number of TLB faults due to domain restrictions
system.cpu.dtb.perms_faults                         0                       # Number of TLB faults due to permissions restrictions
system.cpu.dtb.read_accesses                        0                       # DTB read accesses
system.cpu.dtb.write_accesses                       0                       # DTB write accesses
system.cpu.dtb.inst_accesses                        0                       # ITB inst accesses
system.cpu.dtb.hits                                 0                       # DTB hits
system.cpu.dtb.misses                               0                       # DTB misses
system.cpu.dtb.accesses                             0                       # DTB accesses
system.cpu.istage2_mmu.stage2_tlb.walker.pwrStateResidencyTicks::UNDEFINED 105685940000                       # Cumulative time (in ticks) in various power states
system.cpu.istage2_mmu.stage2_tlb.walker.walks            0                       # Table walker walks requested
system.cpu.istage2_mmu.stage2_tlb.walker.walkRequestOrigin_Requested::Data            0                       # Table walker requests started/completed, data/inst
system.cpu.istage2_mmu.stage2_tlb.walker.walkRequestOrigin_Requested::Inst            0                       # Table walker requests started/completed, data/inst
system.cpu.istage2_mmu.stage2_tlb.walker.walkRequestOrigin_Requested::total            0                       # Table walker requests started/completed, data/inst
system.cpu.istage2_mmu.stage2_tlb.walker.walkRequestOrigin_Completed::Data            0                       # Table walker requests started/completed, data/inst
system.cpu.istage2_mmu.stage2_tlb.walker.walkRequestOrigin_Completed::Inst            0                       # Table walker requests started/completed, data/inst
system.cpu.istage2_mmu.stage2_tlb.walker.walkRequestOrigin_Completed::total            0                       # Table walker requests started/completed, data/inst
system.cpu.istage2_mmu.stage2_tlb.walker.walkRequestOrigin::total            0                       # Table walker requests started/completed, data/inst
system.cpu.istage2_mmu.stage2_tlb.inst_hits            0                       # ITB inst hits
system.cpu.istage2_mmu.stage2_tlb.inst_misses            0                       # ITB inst misses
system.cpu.istage2_mmu.stage2_tlb.read_hits            0                       # DTB read hits
system.cpu.istage2_mmu.stage2_tlb.read_misses            0                       # DTB read misses
system.cpu.istage2_mmu.stage2_tlb.write_hits            0                       # DTB write hits
system.cpu.istage2_mmu.stage2_tlb.write_misses            0                       # DTB write misses
system.cpu.istage2_mmu.stage2_tlb.flush_tlb            0                       # Number of times complete TLB was flushed
system.cpu.istage2_mmu.stage2_tlb.flush_tlb_mva            0                       # Number of times TLB was flushed by MVA
system.cpu.istage2_mmu.stage2_tlb.flush_tlb_mva_asid            0                       # Number of times TLB was flushed by MVA & ASID
system.cpu.istage2_mmu.stage2_tlb.flush_tlb_asid            0                       # Number of times TLB was flushed by ASID
system.cpu.istage2_mmu.stage2_tlb.flush_entries            0                       # Number of entries that have been flushed from TLB
system.cpu.istage2_mmu.stage2_tlb.align_faults            0                       # Number of TLB faults due to alignment restrictions
system.cpu.istage2_mmu.stage2_tlb.prefetch_faults            0                       # Number of TLB faults due to prefetch
system.cpu.istage2_mmu.stage2_tlb.domain_faults            0                       # Number of TLB faults due to domain restrictions
system.cpu.istage2_mmu.stage2_tlb.perms_faults            0                       # Number of TLB faults due to permissions restrictions
system.cpu.istage2_mmu.stage2_tlb.read_accesses            0                       # DTB read accesses
system.cpu.istage2_mmu.stage2_tlb.write_accesses            0                       # DTB write accesses
system.cpu.istage2_mmu.stage2_tlb.inst_accesses            0                       # ITB inst accesses
system.cpu.istage2_mmu.stage2_tlb.hits              0                       # DTB hits
system.cpu.istage2_mmu.stage2_tlb.misses            0                       # DTB misses
system.cpu.istage2_mmu.stage2_tlb.accesses            0                       # DTB accesses
system.cpu.itb.walker.pwrStateResidencyTicks::UNDEFINED 105685940000                       # Cumulative time (in ticks) in various power states
system.cpu.itb.walker.walks                         0                       # Table walker walks requested
system.cpu.itb.walker.walkRequestOrigin_Requested::Data            0                       # Table walker requests started/completed, data/inst
system.cpu.itb.walker.walkRequestOrigin_Requested::Inst            0                       # Table walker requests started/completed, data/inst
system.cpu.itb.walker.walkRequestOrigin_Requested::total            0                       # Table walker requests started/completed, data/inst
system.cpu.itb.walker.walkRequestOrigin_Completed::Data            0                       # Table walker requests started/completed, data/inst
system.cpu.itb.walker.walkRequestOrigin_Completed::Inst            0                       # Table walker requests started/completed, data/inst
system.cpu.itb.walker.walkRequestOrigin_Completed::total            0                       # Table walker requests started/completed, data/inst
system.cpu.itb.walker.walkRequestOrigin::total            0                       # Table walker requests started/completed, data/inst
system.cpu.itb.inst_hits                            0                       # ITB inst hits
system.cpu.itb.inst_misses                          0                       # ITB inst misses
system.cpu.itb.read_hits                            0                       # DTB read hits
system.cpu.itb.read_misses                          0                       # DTB read misses
system.cpu.itb.write_hits                           0                       # DTB write hits
system.cpu.itb.write_misses                         0                       # DTB write misses
system.cpu.itb.flush_tlb                            0                       # Number of times complete TLB was flushed
system.cpu.itb.flush_tlb_mva                        0                       # Number of times TLB was flushed by MVA
system.cpu.itb.flush_tlb_mva_asid                   0                       # Number of times TLB was flushed by MVA & ASID
system.cpu.itb.flush_tlb_asid                       0                       # Number of times TLB was flushed by ASID
system.cpu.itb.flush_entries                        0                       # Number of entries that have been flushed from TLB
system.cpu.itb.align_faults                         0                       # Number of TLB faults due to alignment restrictions
system.cpu.itb.prefetch_faults                      0                       # Number of TLB faults due to prefetch
system.cpu.itb.domain_faults                        0                       # Number of TLB faults due to domain restrictions
system.cpu.itb.perms_faults                         0                       # Number of TLB faults due to permissions restrictions
system.cpu.itb.read_accesses                        0                       # DTB read accesses
system.cpu.itb.write_accesses                       0                       # DTB write accesses
system.cpu.itb.inst_accesses                        0                       # ITB inst accesses
system.cpu.itb.hits                                 0                       # DTB hits
system.cpu.itb.misses                               0                       # DTB misses
system.cpu.itb.accesses                             0                       # DTB accesses
system.cpu.workload.numSyscalls                    16                       # Number of system calls
system.cpu.pwrStateResidencyTicks::ON    105685940000                       # Cumulative time (in ticks) in various power states
system.cpu.numCycles                        211371881                       # number of cpu cycles simulated
system.cpu.numWorkItemsStarted                      0                       # number of work items this cpu started
system.cpu.numWorkItemsCompleted                    0                       # number of work items this cpu completed
system.cpu.fetch.icacheStallCycles             909701                       # Number of cycles fetch is stalled on an Icache miss
system.cpu.fetch.Insts                      432180117                       # Number of instructions fetch has processed
system.cpu.fetch.Branches                    53286477                       # Number of branches that fetch encountered
system.cpu.fetch.predictedBranches           42349173                       # Number of branches that fetch has predicted taken
system.cpu.fetch.Cycles                     209404774                       # Number of cycles fetch has run and was not squashing or blocked
system.cpu.fetch.SquashCycles                 1775580                       # Number of cycles fetch has spent squashing
system.cpu.fetch.MiscStallCycles                  736                       # Number of cycles fetch has spent waiting on interrupts, or bad addresses, or out of MSHRs
system.cpu.fetch.PendingTrapStallCycles           338                       # Number of stall cycles due to pending traps
system.cpu.fetch.IcacheWaitRetryStallCycles         1514                       # Number of stall cycles due to full MSHR
system.cpu.fetch.CacheLines                 127765298                       # Number of cache lines fetched
system.cpu.fetch.IcacheSquashes                  1720                       # Number of outstanding Icache misses that were squashed
system.cpu.fetch.rateDist::samples          211204853                       # Number of instructions fetched each cycle (Total)
system.cpu.fetch.rateDist::mean              2.137972                       # Number of instructions fetched each cycle (Total)
system.cpu.fetch.rateDist::stdev             1.016389                       # Number of instructions fetched each cycle (Total)
system.cpu.fetch.rateDist::underflows               0      0.00%      0.00% # Number of instructions fetched each cycle (Total)
system.cpu.fetch.rateDist::0                  6681146      3.16%      3.16% # Number of instructions fetched each cycle (Total)
system.cpu.fetch.rateDist::1                 76488889     36.22%     39.38% # Number of instructions fetched each cycle (Total)
system.cpu.fetch.rateDist::2                  9043234      4.28%     43.66% # Number of instructions fetched each cycle (Total)
system.cpu.fetch.rateDist::3                118991584     56.34%    100.00% # Number of instructions fetched each cycle (Total)
system.cpu.fetch.rateDist::overflows                0      0.00%    100.00% # Number of instructions fetched each cycle (Total)
system.cpu.fetch.rateDist::min_value                0                       # Number of instructions fetched each cycle (Total)
system.cpu.fetch.rateDist::max_value                3                       # Number of instructions fetched each cycle (Total)
system.cpu.fetch.rateDist::total            211204853                       # Number of instructions fetched each cycle (Total)
system.cpu.fetch.branchRate                  0.252098                       # Number of branch fetches per cycle
system.cpu.fetch.rate                        2.044643                       # Number of inst fetches per cycle
system.cpu.decode.IdleCycles                  7227529                       # Number of cycles decode is idle
system.cpu.decode.BlockedCycles              12553147                       # Number of cycles decode is blocked
system.cpu.decode.RunCycles                 183138479                       # Number of cycles decode is running
system.cpu.decode.UnblockCycles               7460930                       # Number of cycles decode is unblocking
system.cpu.decode.SquashCycles                 824768                       # Number of cycles decode is squashing
system.cpu.decode.BranchResolved             38644893                       # Number of times decode resolved a branch
system.cpu.decode.BranchMispred                 63211                       # Number of times decode detected a branch misprediction
system.cpu.decode.DecodedInsts              441029524                       # Number of instructions handled by decode
system.cpu.decode.SquashedInsts               3794113                       # Number of squashed instructions handled by decode
system.cpu.rename.SquashCycles                 824768                       # Number of cycles rename is squashing
system.cpu.rename.IdleCycles                 13685504                       # Number of cycles rename is idle
system.cpu.rename.BlockCycles                 1984890                       # Number of cycles rename is blocking
system.cpu.rename.serializeStallCycles        2400140                       # count of cycles rename stalled for serializing inst
system.cpu.rename.RunCycles                 184016130                       # Number of cycles rename is running
system.cpu.rename.UnblockCycles               8293421                       # Number of cycles rename is unblocking
system.cpu.rename.RenamedInsts              437712775                       # Number of instructions processed by rename
system.cpu.rename.SquashedInsts               1442448                       # Number of squashed instructions processed by rename
system.cpu.rename.ROBFullEvents               2287549                       # Number of times rename has blocked due to ROB full
system.cpu.rename.IQFullEvents                2705149                       # Number of times rename has blocked due to IQ full
system.cpu.rename.LQFullEvents                    657                       # Number of times rename has blocked due to LQ full
system.cpu.rename.SQFullEvents                  41621                       # Number of times rename has blocked due to SQ full
system.cpu.rename.RenamedOperands           605457852                       # Number of destination operands rename has renamed
system.cpu.rename.RenameLookups            2192148134                       # Number of register rename lookups that rename has made
system.cpu.rename.int_rename_lookups        733744684                       # Number of integer rename lookups
system.cpu.rename.fp_rename_lookups                16                       # Number of floating rename lookups
system.cpu.rename.CommittedMaps             576947938                       # Number of HB maps that are committed
system.cpu.rename.UndoneMaps                 28509913                       # Number of HB maps that are undone due to squashing
system.cpu.rename.serializingInsts             155349                       # count of serializing insts renamed
system.cpu.rename.tempSerializingInsts          31582                       # count of temporary serializing insts renamed
system.cpu.rename.skidInsts                  14476698                       # count of insts added to the skid buffer
system.cpu.memDep0.insertedLoads             38240336                       # Number of loads inserted to the mem dependence unit.
system.cpu.memDep0.insertedStores            38651584                       # Number of stores inserted to the mem dependence unit.
system.cpu.memDep0.conflictingLoads            498077                       # Number of conflicting loads.
system.cpu.memDep0.conflictingStores           444875                       # Number of conflicting stores.
system.cpu.iq.iqInstsAdded                  436208450                       # Number of instructions added to the IQ (excludes non-spec)
system.cpu.iq.iqNonSpecInstsAdded               32165                       # Number of non-speculative instructions added to the IQ
system.cpu.iq.iqInstsIssued                 424736783                       # Number of instructions issued
system.cpu.iq.iqSquashedInstsIssued           1523064                       # Number of squashed instructions issued
system.cpu.iq.iqSquashedInstsExamined        17181101                       # Number of squashed instructions iterated over during squash; mainly for profiling
system.cpu.iq.iqSquashedOperandsExamined     60507795                       # Number of squashed operands that are examined and possibly removed from graph
system.cpu.iq.iqSquashedNonSpecRemoved             57                       # Number of squashed non-spec instructions that were removed
system.cpu.iq.issued_per_cycle::samples     211204853                       # Number of insts issued each cycle
system.cpu.iq.issued_per_cycle::mean         2.011018                       # Number of insts issued each cycle
system.cpu.iq.issued_per_cycle::stdev        0.798292                       # Number of insts issued each cycle
system.cpu.iq.issued_per_cycle::underflows            0      0.00%      0.00% # Number of insts issued each cycle
system.cpu.iq.issued_per_cycle::0            12187812      5.77%      5.77% # Number of insts issued each cycle
system.cpu.iq.issued_per_cycle::1            28204271     13.35%     19.12% # Number of insts issued each cycle
system.cpu.iq.issued_per_cycle::2           117284701     55.53%     74.66% # Number of insts issued each cycle
system.cpu.iq.issued_per_cycle::3            52149173     24.69%     99.35% # Number of insts issued each cycle
system.cpu.iq.issued_per_cycle::4             1378889      0.65%    100.00% # Number of insts issued each cycle
system.cpu.iq.issued_per_cycle::5                   7      0.00%    100.00% # Number of insts issued each cycle
system.cpu.iq.issued_per_cycle::6                   0      0.00%    100.00% # Number of insts issued each cycle
system.cpu.iq.issued_per_cycle::7                   0      0.00%    100.00% # Number of insts issued each cycle
system.cpu.iq.issued_per_cycle::8                   0      0.00%    100.00% # Number of insts issued each cycle
system.cpu.iq.issued_per_cycle::overflows            0      0.00%    100.00% # Number of insts issued each cycle
system.cpu.iq.issued_per_cycle::min_value            0                       # Number of insts issued each cycle
system.cpu.iq.issued_per_cycle::max_value            5                       # Number of insts issued each cycle
system.cpu.iq.issued_per_cycle::total       211204853                       # Number of insts issued each cycle
system.cpu.iq.fu_full::No_OpClass                   0      0.00%      0.00% # attempts to use FU when none available
system.cpu.iq.fu_full::IntAlu                74270113     86.46%     86.46% # attempts to use FU when none available
system.cpu.iq.fu_full::IntMult                     21      0.00%     86.46% # attempts to use FU when none available
system.cpu.iq.fu_full::IntDiv                       0      0.00%     86.46% # attempts to use FU when none available
system.cpu.iq.fu_full::FloatAdd                     0      0.00%     86.46% # attempts to use FU when none available
system.cpu.iq.fu_full::FloatCmp                     0      0.00%     86.46% # attempts to use FU when none available
system.cpu.iq.fu_full::FloatCvt                     0      0.00%     86.46% # attempts to use FU when none available
system.cpu.iq.fu_full::FloatMult                    0      0.00%     86.46% # attempts to use FU when none available
system.cpu.iq.fu_full::FloatMultAcc                 0      0.00%     86.46% # attempts to use FU when none available
system.cpu.iq.fu_full::FloatDiv                     0      0.00%     86.46% # attempts to use FU when none available
system.cpu.iq.fu_full::FloatMisc                    0      0.00%     86.46% # attempts to use FU when none available
system.cpu.iq.fu_full::FloatSqrt                    0      0.00%     86.46% # attempts to use FU when none available
system.cpu.iq.fu_full::SimdAdd                      0      0.00%     86.46% # attempts to use FU when none available
system.cpu.iq.fu_full::SimdAddAcc                   0      0.00%     86.46% # attempts to use FU when none available
system.cpu.iq.fu_full::SimdAlu                      0      0.00%     86.46% # attempts to use FU when none available
system.cpu.iq.fu_full::SimdCmp                      0      0.00%     86.46% # attempts to use FU when none available
system.cpu.iq.fu_full::SimdCvt                      0      0.00%     86.46% # attempts to use FU when none available
system.cpu.iq.fu_full::SimdMisc                     0      0.00%     86.46% # attempts to use FU when none available
system.cpu.iq.fu_full::SimdMult                     0      0.00%     86.46% # attempts to use FU when none available
system.cpu.iq.fu_full::SimdMultAcc                  0      0.00%     86.46% # attempts to use FU when none available
system.cpu.iq.fu_full::SimdShift                    0      0.00%     86.46% # attempts to use FU when none available
system.cpu.iq.fu_full::SimdShiftAcc                 0      0.00%     86.46% # attempts to use FU when none available
system.cpu.iq.fu_full::SimdSqrt                     0      0.00%     86.46% # attempts to use FU when none available
system.cpu.iq.fu_full::SimdFloatAdd                 0      0.00%     86.46% # attempts to use FU when none available
system.cpu.iq.fu_full::SimdFloatAlu                 0      0.00%     86.46% # attempts to use FU when none available
system.cpu.iq.fu_full::SimdFloatCmp                 0      0.00%     86.46% # attempts to use FU when none available
system.cpu.iq.fu_full::SimdFloatCvt                 0      0.00%     86.46% # attempts to use FU when none available
system.cpu.iq.fu_full::SimdFloatDiv                 0      0.00%     86.46% # attempts to use FU when none available
system.cpu.iq.fu_full::SimdFloatMisc                0      0.00%     86.46% # attempts to use FU when none available
system.cpu.iq.fu_full::SimdFloatMult                0      0.00%     86.46% # attempts to use FU when none available
system.cpu.iq.fu_full::SimdFloatMultAcc             0      0.00%     86.46% # attempts to use FU when none available
system.cpu.iq.fu_full::SimdFloatSqrt                0      0.00%     86.46% # attempts to use FU when none available
system.cpu.iq.fu_full::MemRead                5678044      6.61%     93.07% # attempts to use FU when none available
system.cpu.iq.fu_full::MemWrite               5950662      6.93%    100.00% # attempts to use FU when none available
system.cpu.iq.fu_full::FloatMemRead                 0      0.00%    100.00% # attempts to use FU when none available
system.cpu.iq.fu_full::FloatMemWrite               16      0.00%    100.00% # attempts to use FU when none available
system.cpu.iq.fu_full::IprAccess                    0      0.00%    100.00% # attempts to use FU when none available
system.cpu.iq.fu_full::InstPrefetch                 0      0.00%    100.00% # attempts to use FU when none available
system.cpu.iq.FU_type_0::No_OpClass                15      0.00%      0.00% # Type of FU issued
system.cpu.iq.FU_type_0::IntAlu             346281319     81.53%     81.53% # Type of FU issued
system.cpu.iq.FU_type_0::IntMult              1603309      0.38%     81.91% # Type of FU issued
system.cpu.iq.FU_type_0::IntDiv                     0      0.00%     81.91% # Type of FU issued
system.cpu.iq.FU_type_0::FloatAdd                   0      0.00%     81.91% # Type of FU issued
system.cpu.iq.FU_type_0::FloatCmp                   0      0.00%     81.91% # Type of FU issued
system.cpu.iq.FU_type_0::FloatCvt                   0      0.00%     81.91% # Type of FU issued
system.cpu.iq.FU_type_0::FloatMult                  0      0.00%     81.91% # Type of FU issued
system.cpu.iq.FU_type_0::FloatMultAcc               0      0.00%     81.91% # Type of FU issued
system.cpu.iq.FU_type_0::FloatDiv                   0      0.00%     81.91% # Type of FU issued
system.cpu.iq.FU_type_0::FloatMisc                  0      0.00%     81.91% # Type of FU issued
system.cpu.iq.FU_type_0::FloatSqrt                  0      0.00%     81.91% # Type of FU issued
system.cpu.iq.FU_type_0::SimdAdd                    0      0.00%     81.91% # Type of FU issued
system.cpu.iq.FU_type_0::SimdAddAcc                 0      0.00%     81.91% # Type of FU issued
system.cpu.iq.FU_type_0::SimdAlu                    0      0.00%     81.91% # Type of FU issued
system.cpu.iq.FU_type_0::SimdCmp                    0      0.00%     81.91% # Type of FU issued
system.cpu.iq.FU_type_0::SimdCvt                    0      0.00%     81.91% # Type of FU issued
system.cpu.iq.FU_type_0::SimdMisc                   0      0.00%     81.91% # Type of FU issued
system.cpu.iq.FU_type_0::SimdMult                   0      0.00%     81.91% # Type of FU issued
system.cpu.iq.FU_type_0::SimdMultAcc                0      0.00%     81.91% # Type of FU issued
system.cpu.iq.FU_type_0::SimdShift                  0      0.00%     81.91% # Type of FU issued
system.cpu.iq.FU_type_0::SimdShiftAcc               0      0.00%     81.91% # Type of FU issued
system.cpu.iq.FU_type_0::SimdSqrt                   0      0.00%     81.91% # Type of FU issued
system.cpu.iq.FU_type_0::SimdFloatAdd               0      0.00%     81.91% # Type of FU issued
system.cpu.iq.FU_type_0::SimdFloatAlu               0      0.00%     81.91% # Type of FU issued
system.cpu.iq.FU_type_0::SimdFloatCmp               0      0.00%     81.91% # Type of FU issued
system.cpu.iq.FU_type_0::SimdFloatCvt               0      0.00%     81.91% # Type of FU issued
system.cpu.iq.FU_type_0::SimdFloatDiv               0      0.00%     81.91% # Type of FU issued
system.cpu.iq.FU_type_0::SimdFloatMisc         154681      0.04%     81.94% # Type of FU issued
system.cpu.iq.FU_type_0::SimdFloatMult              0      0.00%     81.94% # Type of FU issued
system.cpu.iq.FU_type_0::SimdFloatMultAcc            0      0.00%     81.94% # Type of FU issued
system.cpu.iq.FU_type_0::SimdFloatSqrt              0      0.00%     81.94% # Type of FU issued
system.cpu.iq.FU_type_0::MemRead             38658629      9.10%     91.04% # Type of FU issued
system.cpu.iq.FU_type_0::MemWrite            38038814      8.96%    100.00% # Type of FU issued
system.cpu.iq.FU_type_0::FloatMemRead               0      0.00%    100.00% # Type of FU issued
system.cpu.iq.FU_type_0::FloatMemWrite             16      0.00%    100.00% # Type of FU issued
system.cpu.iq.FU_type_0::IprAccess                  0      0.00%    100.00% # Type of FU issued
system.cpu.iq.FU_type_0::InstPrefetch               0      0.00%    100.00% # Type of FU issued
system.cpu.iq.FU_type_0::total              424736783                       # Type of FU issued
system.cpu.iq.rate                           2.009429                       # Inst issue rate
system.cpu.iq.fu_busy_cnt                    85898856                       # FU busy when requested
system.cpu.iq.fu_busy_rate                   0.202240                       # FU busy rate (busy events/executed inst)
system.cpu.iq.int_inst_queue_reads         1148100291                       # Number of integer instruction queue reads
system.cpu.iq.int_inst_queue_writes         453422593                       # Number of integer instruction queue writes
system.cpu.iq.int_inst_queue_wakeup_accesses    423063361                       # Number of integer instruction queue wakeup accesses
system.cpu.iq.fp_inst_queue_reads                  48                       # Number of floating instruction queue reads
system.cpu.iq.fp_inst_queue_writes                 16                       # Number of floating instruction queue writes
system.cpu.iq.fp_inst_queue_wakeup_accesses           16                       # Number of floating instruction queue wakeup accesses
system.cpu.iq.vec_inst_queue_reads                  0                       # Number of vector instruction queue reads
system.cpu.iq.vec_inst_queue_writes                 0                       # Number of vector instruction queue writes
system.cpu.iq.vec_inst_queue_wakeup_accesses            0                       # Number of vector instruction queue wakeup accesses
system.cpu.iq.int_alu_accesses              510635592                       # Number of integer alu accesses
system.cpu.iq.fp_alu_accesses                      32                       # Number of floating point alu accesses
system.cpu.iq.vec_alu_accesses                      0                       # Number of vector alu accesses
system.cpu.iew.lsq.thread0.forwLoads           402838                       # Number of loads that had data forwarded from stores
system.cpu.iew.lsq.thread0.invAddrLoads             0                       # Number of loads ignored due to an invalid address
system.cpu.iew.lsq.thread0.squashedLoads      1051627                       # Number of loads squashed
system.cpu.iew.lsq.thread0.ignoredResponses          166                       # Number of memory responses ignored because the instruction is squashed
system.cpu.iew.lsq.thread0.memOrderViolation          893                       # Number of memory ordering violations
system.cpu.iew.lsq.thread0.squashedStores       949443                       # Number of stores squashed
system.cpu.iew.lsq.thread0.invAddrSwpfs             0                       # Number of software prefetches ignored due to an invalid address
system.cpu.iew.lsq.thread0.blockedLoads             0                       # Number of blocked loads due to partial load-store forwarding
system.cpu.iew.lsq.thread0.rescheduledLoads       870235                       # Number of loads that were rescheduled
system.cpu.iew.lsq.thread0.cacheBlocked          2067                       # Number of times an access to memory failed due to the cache being blocked
system.cpu.iew.iewIdleCycles                        0                       # Number of cycles IEW is idle
system.cpu.iew.iewSquashCycles                 824768                       # Number of cycles IEW is squashing
system.cpu.iew.iewBlockCycles                 1548164                       # Number of cycles IEW is blocking
system.cpu.iew.iewUnblockCycles                   391                       # Number of cycles IEW is unblocking
system.cpu.iew.iewDispatchedInsts           436240623                       # Number of instructions dispatched to IQ
system.cpu.iew.iewDispSquashedInsts                 0                       # Number of squashed instructions skipped by dispatch
system.cpu.iew.iewDispLoadInsts              38240336                       # Number of dispatched load instructions
system.cpu.iew.iewDispStoreInsts             38651584                       # Number of dispatched store instructions
system.cpu.iew.iewDispNonSpecInsts              31581                       # Number of dispatched non-speculative instructions
system.cpu.iew.iewIQFullEvents                     68                       # Number of times the IQ has become full, causing a stall
system.cpu.iew.iewLSQFullEvents                   201                       # Number of times the LSQ has become full, causing a stall
system.cpu.iew.memOrderViolationEvents            893                       # Number of memory order violations
system.cpu.iew.predictedTakenIncorrect         344587                       # Number of branches that were predicted taken incorrectly
system.cpu.iew.predictedNotTakenIncorrect       491608                       # Number of branches that were predicted not taken incorrectly
system.cpu.iew.branchMispredicts               836195                       # Number of branch mispredicts detected at execute
system.cpu.iew.iewExecutedInsts             424056193                       # Number of executed instructions
system.cpu.iew.iewExecLoadInsts              38436627                       # Number of load instructions executed
system.cpu.iew.iewExecSquashedInsts            680590                       # Number of squashed instructions skipped in execute
system.cpu.iew.exec_swp                             0                       # number of swp insts executed
system.cpu.iew.exec_nop                             8                       # number of nop insts executed
system.cpu.iew.exec_refs                     76327409                       # number of memory reference insts executed
system.cpu.iew.exec_branches                 49439589                       # Number of branches executed
system.cpu.iew.exec_stores                   37890782                       # Number of stores executed
system.cpu.iew.exec_rate                     2.006209                       # Inst execution rate
system.cpu.iew.wb_sent                      423080708                       # cumulative count of insts sent to commit
system.cpu.iew.wb_count                     423063377                       # cumulative count of insts written-back
system.cpu.iew.wb_producers                 318645853                       # num instructions producing a value
system.cpu.iew.wb_consumers                 788942208                       # num instructions consuming a value
system.cpu.iew.wb_rate                       2.001512                       # insts written-back per cycle
system.cpu.iew.wb_fanout                     0.403890                       # average fanout of values written-back
system.cpu.commit.commitSquashedInsts        15618364                       # The number of squashed insts skipped by commit
system.cpu.commit.commitNonSpecStalls           32108                       # The number of times commit has been forced to stall to communicate backwards
system.cpu.commit.branchMispredicts            792978                       # The number of times a branch was mispredicted
system.cpu.commit.committed_per_cycle::samples    208838142                       # Number of insts commited each cycle
system.cpu.commit.committed_per_cycle::mean     2.006623                       # Number of insts commited each cycle
system.cpu.commit.committed_per_cycle::stdev     2.051461                       # Number of insts commited each cycle
system.cpu.commit.committed_per_cycle::underflows            0      0.00%      0.00% # Number of insts commited each cycle
system.cpu.commit.committed_per_cycle::0     43498458     20.83%     20.83% # Number of insts commited each cycle
system.cpu.commit.committed_per_cycle::1     59712293     28.59%     49.42% # Number of insts commited each cycle
system.cpu.commit.committed_per_cycle::2     61645981     29.52%     78.94% # Number of insts commited each cycle
system.cpu.commit.committed_per_cycle::3      8665599      4.15%     83.09% # Number of insts commited each cycle
system.cpu.commit.committed_per_cycle::4      5192718      2.49%     85.58% # Number of insts commited each cycle
system.cpu.commit.committed_per_cycle::5     16353749      7.83%     93.41% # Number of insts commited each cycle
system.cpu.commit.committed_per_cycle::6       937398      0.45%     93.86% # Number of insts commited each cycle
system.cpu.commit.committed_per_cycle::7       761112      0.36%     94.22% # Number of insts commited each cycle
system.cpu.commit.committed_per_cycle::8     12070834      5.78%    100.00% # Number of insts commited each cycle
system.cpu.commit.committed_per_cycle::overflows            0      0.00%    100.00% # Number of insts commited each cycle
system.cpu.commit.committed_per_cycle::min_value            0                       # Number of insts commited each cycle
system.cpu.commit.committed_per_cycle::max_value            8                       # Number of insts commited each cycle
system.cpu.commit.committed_per_cycle::total    208838142                       # Number of insts commited each cycle
system.cpu.commit.committedInsts            402752520                       # Number of instructions committed
system.cpu.commit.committedOps              419059513                       # Number of ops (including micro ops) committed
system.cpu.commit.swp_count                         0                       # Number of s/w prefetches committed
system.cpu.commit.refs                       74890850                       # Number of memory references committed
system.cpu.commit.loads                      37188709                       # Number of loads committed
system.cpu.commit.membars                         584                       # Number of memory barriers committed
system.cpu.commit.branches                   48961079                       # Number of branches committed
system.cpu.commit.vec_insts                         0                       # Number of committed Vector instructions.
system.cpu.commit.fp_insts                         16                       # Number of committed floating point instructions.
system.cpu.commit.int_insts                 376724794                       # Number of committed integer instructions.
system.cpu.commit.function_calls              3239999                       # Number of function calls committed.
system.cpu.commit.op_class_0::No_OpClass            0      0.00%      0.00% # Class of committed instruction
system.cpu.commit.op_class_0::IntAlu        342417093     81.71%     81.71% # Class of committed instruction
system.cpu.commit.op_class_0::IntMult         1596889      0.38%     82.09% # Class of committed instruction
system.cpu.commit.op_class_0::IntDiv                0      0.00%     82.09% # Class of committed instruction
system.cpu.commit.op_class_0::FloatAdd              0      0.00%     82.09% # Class of committed instruction
system.cpu.commit.op_class_0::FloatCmp              0      0.00%     82.09% # Class of committed instruction
system.cpu.commit.op_class_0::FloatCvt              0      0.00%     82.09% # Class of committed instruction
system.cpu.commit.op_class_0::FloatMult             0      0.00%     82.09% # Class of committed instruction
system.cpu.commit.op_class_0::FloatMultAcc            0      0.00%     82.09% # Class of committed instruction
system.cpu.commit.op_class_0::FloatDiv              0      0.00%     82.09% # Class of committed instruction
system.cpu.commit.op_class_0::FloatMisc             0      0.00%     82.09% # Class of committed instruction
system.cpu.commit.op_class_0::FloatSqrt             0      0.00%     82.09% # Class of committed instruction
system.cpu.commit.op_class_0::SimdAdd               0      0.00%     82.09% # Class of committed instruction
system.cpu.commit.op_class_0::SimdAddAcc            0      0.00%     82.09% # Class of committed instruction
system.cpu.commit.op_class_0::SimdAlu               0      0.00%     82.09% # Class of committed instruction
system.cpu.commit.op_class_0::SimdCmp               0      0.00%     82.09% # Class of committed instruction
system.cpu.commit.op_class_0::SimdCvt               0      0.00%     82.09% # Class of committed instruction
system.cpu.commit.op_class_0::SimdMisc              0      0.00%     82.09% # Class of committed instruction
system.cpu.commit.op_class_0::SimdMult              0      0.00%     82.09% # Class of committed instruction
system.cpu.commit.op_class_0::SimdMultAcc            0      0.00%     82.09% # Class of committed instruction
system.cpu.commit.op_class_0::SimdShift             0      0.00%     82.09% # Class of committed instruction
system.cpu.commit.op_class_0::SimdShiftAcc            0      0.00%     82.09% # Class of committed instruction
system.cpu.commit.op_class_0::SimdSqrt              0      0.00%     82.09% # Class of committed instruction
system.cpu.commit.op_class_0::SimdFloatAdd            0      0.00%     82.09% # Class of committed instruction
system.cpu.commit.op_class_0::SimdFloatAlu            0      0.00%     82.09% # Class of committed instruction
system.cpu.commit.op_class_0::SimdFloatCmp            0      0.00%     82.09% # Class of committed instruction
system.cpu.commit.op_class_0::SimdFloatCvt            0      0.00%     82.09% # Class of committed instruction
system.cpu.commit.op_class_0::SimdFloatDiv            0      0.00%     82.09% # Class of committed instruction
system.cpu.commit.op_class_0::SimdFloatMisc       154681      0.04%     82.13% # Class of committed instruction
[...]
system.l2.demand_miss_rate::cpu.data         0.078748                       # miss rate for demand accesses
system.l2.demand_miss_rate::total            0.139280                       # miss rate for demand accesses
system.l2.overall_miss_rate::cpu.inst        0.224965                       # miss rate for overall accesses
system.l2.overall_miss_rate::cpu.data        0.078748                       # miss rate for overall accesses
system.l2.overall_miss_rate::total           0.139280                       # miss rate for overall accesses
system.l2.ReadExReq_avg_miss_latency::cpu.data 112443.548387                       # average ReadExReq miss latency
system.l2.ReadExReq_avg_miss_latency::total 112443.548387                       # average ReadExReq miss latency
system.l2.ReadCleanReq_avg_miss_latency::cpu.inst 121930.305755                       # average ReadCleanReq miss latency
system.l2.ReadCleanReq_avg_miss_latency::total 121930.305755                       # average ReadCleanReq miss latency
system.l2.ReadSharedReq_avg_miss_latency::cpu.data 150251.756440                       # average ReadSharedReq miss latency
system.l2.ReadSharedReq_avg_miss_latency::total 150251.756440                       # average ReadSharedReq miss latency
system.l2.demand_avg_miss_latency::cpu.inst 121930.305755                       # average overall miss latency
system.l2.demand_avg_miss_latency::cpu.data 141743.194192                       # average overall miss latency
system.l2.demand_avg_miss_latency::total 128494.888755                       # average overall miss latency
system.l2.overall_avg_miss_latency::cpu.inst 121930.305755                       # average overall miss latency
system.l2.overall_avg_miss_latency::cpu.data 141743.194192                       # average overall miss latency
system.l2.overall_avg_miss_latency::total 128494.888755                       # average overall miss latency
system.l2.blocked_cycles::no_mshrs                  0                       # number of cycles access was blocked
system.l2.blocked_cycles::no_targets                0                       # number of cycles access was blocked
system.l2.blocked::no_mshrs                         0                       # number of cycles access was blocked
system.l2.blocked::no_targets                       0                       # number of cycles access was blocked
system.l2.avg_blocked_cycles::no_mshrs            nan                       # average number of cycles each access was blocked
system.l2.avg_blocked_cycles::no_targets          nan                       # average number of cycles each access was blocked
system.l2.ReadExReq_mshr_hits::cpu.data            29                       # number of ReadExReq MSHR hits
system.l2.ReadExReq_mshr_hits::total               29                       # number of ReadExReq MSHR hits
system.l2.ReadCleanReq_mshr_hits::cpu.inst            1                       # number of ReadCleanReq MSHR hits
system.l2.ReadCleanReq_mshr_hits::total             1                       # number of ReadCleanReq MSHR hits
system.l2.ReadSharedReq_mshr_hits::cpu.data            9                       # number of ReadSharedReq MSHR hits
system.l2.ReadSharedReq_mshr_hits::total            9                       # number of ReadSharedReq MSHR hits
system.l2.demand_mshr_hits::cpu.inst                1                       # number of demand (read+write) MSHR hits
system.l2.demand_mshr_hits::cpu.data               38                       # number of demand (read+write) MSHR hits
system.l2.demand_mshr_hits::total                  39                       # number of demand (read+write) MSHR hits
system.l2.overall_mshr_hits::cpu.inst               1                       # number of overall MSHR hits
system.l2.overall_mshr_hits::cpu.data              38                       # number of overall MSHR hits
system.l2.overall_mshr_hits::total                 39                       # number of overall MSHR hits
system.l2.HardPFReq_mshr_misses::l2.prefetcher         3620                       # number of HardPFReq MSHR misses
system.l2.HardPFReq_mshr_misses::total           3620                       # number of HardPFReq MSHR misses
system.l2.ReadExReq_mshr_misses::cpu.data           95                       # number of ReadExReq MSHR misses
system.l2.ReadExReq_mshr_misses::total             95                       # number of ReadExReq MSHR misses
system.l2.ReadCleanReq_mshr_misses::cpu.inst         1111                       # number of ReadCleanReq MSHR misses
system.l2.ReadCleanReq_mshr_misses::total         1111                       # number of ReadCleanReq MSHR misses
system.l2.ReadSharedReq_mshr_misses::cpu.data          418                       # number of ReadSharedReq MSHR misses
system.l2.ReadSharedReq_mshr_misses::total          418                       # number of ReadSharedReq MSHR misses
system.l2.demand_mshr_misses::cpu.inst           1111                       # number of demand (read+write) MSHR misses
system.l2.demand_mshr_misses::cpu.data            513                       # number of demand (read+write) MSHR misses
system.l2.demand_mshr_misses::total              1624                       # number of demand (read+write) MSHR misses
system.l2.overall_mshr_misses::cpu.inst          1111                       # number of overall MSHR misses
system.l2.overall_mshr_misses::cpu.data           513                       # number of overall MSHR misses
system.l2.overall_mshr_misses::l2.prefetcher         3620                       # number of overall MSHR misses
system.l2.overall_mshr_misses::total             5244                       # number of overall MSHR misses
system.l2.HardPFReq_mshr_miss_latency::l2.prefetcher     92228413                       # number of HardPFReq MSHR miss cycles
system.l2.HardPFReq_mshr_miss_latency::total     92228413                       # number of HardPFReq MSHR miss cycles
system.l2.ReadExReq_mshr_miss_latency::cpu.data     12202000                       # number of ReadExReq MSHR miss cycles
system.l2.ReadExReq_mshr_miss_latency::total     12202000                       # number of ReadExReq MSHR miss cycles
system.l2.ReadCleanReq_mshr_miss_latency::cpu.inst    128861000                       # number of ReadCleanReq MSHR miss cycles
system.l2.ReadCleanReq_mshr_miss_latency::total    128861000                       # number of ReadCleanReq MSHR miss cycles
system.l2.ReadSharedReq_mshr_miss_latency::cpu.data     61085000                       # number of ReadSharedReq MSHR miss cycles
system.l2.ReadSharedReq_mshr_miss_latency::total     61085000                       # number of ReadSharedReq MSHR miss cycles
system.l2.demand_mshr_miss_latency::cpu.inst    128861000                       # number of demand (read+write) MSHR miss cycles
system.l2.demand_mshr_miss_latency::cpu.data     73287000                       # number of demand (read+write) MSHR miss cycles
system.l2.demand_mshr_miss_latency::total    202148000                       # number of demand (read+write) MSHR miss cycles
system.l2.overall_mshr_miss_latency::cpu.inst    128861000                       # number of overall MSHR miss cycles
system.l2.overall_mshr_miss_latency::cpu.data     73287000                       # number of overall MSHR miss cycles
system.l2.overall_mshr_miss_latency::l2.prefetcher     92228413                       # number of overall MSHR miss cycles
system.l2.overall_mshr_miss_latency::total    294376413                       # number of overall MSHR miss cycles
system.l2.HardPFReq_mshr_miss_rate::l2.prefetcher          inf                       # mshr miss rate for HardPFReq accesses
system.l2.HardPFReq_mshr_miss_rate::total          inf                       # mshr miss rate for HardPFReq accesses
system.l2.ReadExReq_mshr_miss_rate::cpu.data     0.025340                       # mshr miss rate for ReadExReq accesses
system.l2.ReadExReq_mshr_miss_rate::total     0.025340                       # mshr miss rate for ReadExReq accesses
system.l2.ReadCleanReq_mshr_miss_rate::cpu.inst     0.224762                       # mshr miss rate for ReadCleanReq accesses
system.l2.ReadCleanReq_mshr_miss_rate::total     0.224762                       # mshr miss rate for ReadCleanReq accesses
system.l2.ReadSharedReq_mshr_miss_rate::cpu.data     0.128695                       # mshr miss rate for ReadSharedReq accesses
system.l2.ReadSharedReq_mshr_miss_rate::total     0.128695                       # mshr miss rate for ReadSharedReq accesses
system.l2.demand_mshr_miss_rate::cpu.inst     0.224762                       # mshr miss rate for demand accesses
system.l2.demand_mshr_miss_rate::cpu.data     0.073317                       # mshr miss rate for demand accesses
system.l2.demand_mshr_miss_rate::total       0.136013                       # mshr miss rate for demand accesses
system.l2.overall_mshr_miss_rate::cpu.inst     0.224762                       # mshr miss rate for overall accesses
system.l2.overall_mshr_miss_rate::cpu.data     0.073317                       # mshr miss rate for overall accesses
system.l2.overall_mshr_miss_rate::l2.prefetcher          inf                       # mshr miss rate for overall accesses
system.l2.overall_mshr_miss_rate::total      0.439196                       # mshr miss rate for overall accesses
system.l2.HardPFReq_avg_mshr_miss_latency::l2.prefetcher 25477.462155                       # average HardPFReq mshr miss latency
system.l2.HardPFReq_avg_mshr_miss_latency::total 25477.462155                       # average HardPFReq mshr miss latency
system.l2.ReadExReq_avg_mshr_miss_latency::cpu.data 128442.105263                       # average ReadExReq mshr miss latency
system.l2.ReadExReq_avg_mshr_miss_latency::total 128442.105263                       # average ReadExReq mshr miss latency
system.l2.ReadCleanReq_avg_mshr_miss_latency::cpu.inst 115986.498650                       # average ReadCleanReq mshr miss latency
system.l2.ReadCleanReq_avg_mshr_miss_latency::total 115986.498650                       # average ReadCleanReq mshr miss latency
system.l2.ReadSharedReq_avg_mshr_miss_latency::cpu.data 146136.363636                       # average ReadSharedReq mshr miss latency
system.l2.ReadSharedReq_avg_mshr_miss_latency::total 146136.363636                       # average ReadSharedReq mshr miss latency
system.l2.demand_avg_mshr_miss_latency::cpu.inst 115986.498650                       # average overall mshr miss latency
system.l2.demand_avg_mshr_miss_latency::cpu.data 142859.649123                       # average overall mshr miss latency
system.l2.demand_avg_mshr_miss_latency::total 124475.369458                       # average overall mshr miss latency
system.l2.overall_avg_mshr_miss_latency::cpu.inst 115986.498650                       # average overall mshr miss latency
system.l2.overall_avg_mshr_miss_latency::cpu.data 142859.649123                       # average overall mshr miss latency
system.l2.overall_avg_mshr_miss_latency::l2.prefetcher 25477.462155                       # average overall mshr miss latency
system.l2.overall_avg_mshr_miss_latency::total 56135.852975                       # average overall mshr miss latency
system.membus.snoop_filter.tot_requests          3147                       # Total number of requests made to the snoop filter.
system.membus.snoop_filter.hit_single_requests          355                       # Number of requests hitting in the snoop filter with a single holder of the requested data.
system.membus.snoop_filter.hit_multi_requests            0                       # Number of requests hitting in the snoop filter with multiple (>1) holders of the requested data.
system.membus.snoop_filter.tot_snoops               0                       # Total number of snoops made to the snoop filter.
system.membus.snoop_filter.hit_single_snoops            0                       # Number of snoops hitting in the snoop filter with a single holder of the requested data.
system.membus.snoop_filter.hit_multi_snoops            0                       # Number of snoops hitting in the snoop filter with multiple (>1) holders of the requested data.
system.membus.pwrStateResidencyTicks::UNDEFINED 105685940000                       # Cumulative time (in ticks) in various power states
system.membus.trans_dist::ReadResp               3052                       # Transaction distribution
system.membus.trans_dist::ReadExReq                95                       # Transaction distribution
system.membus.trans_dist::ReadExResp               95                       # Transaction distribution
system.membus.trans_dist::ReadCleanReq           3052                       # Transaction distribution
system.membus.pkt_count_system.l2.mem_side::system.mem_ctrls.port         6294                       # Packet count per connected master and slave (bytes)
system.membus.pkt_count::total                   6294                       # Packet count per connected master and slave (bytes)
system.membus.pkt_size_system.l2.mem_side::system.mem_ctrls.port       201408                       # Cumulative packet size per connected master and slave (bytes)
system.membus.pkt_size::total                  201408                       # Cumulative packet size per connected master and slave (bytes)
system.membus.snoops                                0                       # Total snoops (count)
system.membus.snoopTraffic                          0                       # Total snoop traffic (bytes)
system.membus.snoop_fanout::samples              3147                       # Request fanout histogram
system.membus.snoop_fanout::mean                    0                       # Request fanout histogram
system.membus.snoop_fanout::stdev                   0                       # Request fanout histogram
system.membus.snoop_fanout::underflows              0      0.00%      0.00% # Request fanout histogram
system.membus.snoop_fanout::0                    3147    100.00%    100.00% # Request fanout histogram
system.membus.snoop_fanout::1                       0      0.00%    100.00% # Request fanout histogram
system.membus.snoop_fanout::overflows               0      0.00%    100.00% # Request fanout histogram
system.membus.snoop_fanout::min_value               0                       # Request fanout histogram
system.membus.snoop_fanout::max_value               0                       # Request fanout histogram
system.membus.snoop_fanout::total                3147                       # Request fanout histogram
system.membus.reqLayer0.occupancy             4697689                       # Layer occupancy (ticks)
system.membus.reqLayer0.utilization               0.0                       # Layer utilization (%)
system.membus.respLayer1.occupancy           16522515                       # Layer occupancy (ticks)
system.membus.respLayer1.utilization              0.0                       # Layer utilization (%)
system.tol2bus.snoop_filter.tot_requests        22598                       # Total number of requests made to the snoop filter.
system.tol2bus.snoop_filter.hit_single_requests        10670                       # Number of requests hitting in the snoop filter with a single holder of the requested data.
system.tol2bus.snoop_filter.hit_multi_requests          353                       # Number of requests hitting in the snoop filter with multiple (>1) holders of the requested data.
system.tol2bus.snoop_filter.tot_snoops           2096                       # Total number of snoops made to the snoop filter.
system.tol2bus.snoop_filter.hit_single_snoops         2096                       # Number of snoops hitting in the snoop filter with a single holder of the requested data.
system.tol2bus.snoop_filter.hit_multi_snoops            0                       # Number of snoops hitting in the snoop filter with multiple (>1) holders of the requested data.
system.tol2bus.pwrStateResidencyTicks::UNDEFINED 105685940000                       # Cumulative time (in ticks) in various power states
system.tol2bus.trans_dist::ReadResp              8189                       # Transaction distribution
system.tol2bus.trans_dist::WritebackDirty         4962                       # Transaction distribution
system.tol2bus.trans_dist::WritebackClean         5696                       # Transaction distribution
system.tol2bus.trans_dist::HardPFReq             3849                       # Transaction distribution
system.tol2bus.trans_dist::ReadExReq             3749                       # Transaction distribution
system.tol2bus.trans_dist::ReadExResp            3749                       # Transaction distribution
system.tol2bus.trans_dist::ReadCleanReq          4943                       # Transaction distribution
system.tol2bus.trans_dist::ReadSharedReq         3248                       # Transaction distribution
system.tol2bus.pkt_count_system.cpu.icache.mem_side::system.l2.cpu_side        14569                       # Packet count per connected master and slave (bytes)
system.tol2bus.pkt_count_system.cpu.dcache.mem_side::system.l2.cpu_side        19967                       # Packet count per connected master and slave (bytes)
system.tol2bus.pkt_count::total                 34536                       # Packet count per connected master and slave (bytes)
system.tol2bus.pkt_size_system.cpu.icache.mem_side::system.l2.cpu_side       616064                       # Cumulative packet size per connected master and slave (bytes)
system.tol2bus.pkt_size_system.cpu.dcache.mem_side::system.l2.cpu_side       830080                       # Cumulative packet size per connected master and slave (bytes)
system.tol2bus.pkt_size::total                1446144                       # Cumulative packet size per connected master and slave (bytes)
system.tol2bus.snoops                            3849                       # Total snoops (count)
system.tol2bus.snoopTraffic                         0                       # Total snoop traffic (bytes)
system.tol2bus.snoop_fanout::samples            15789                       # Request fanout histogram
system.tol2bus.snoop_fanout::mean            0.155868                       # Request fanout histogram
system.tol2bus.snoop_fanout::stdev           0.362742                       # Request fanout histogram
system.tol2bus.snoop_fanout::underflows             0      0.00%      0.00% # Request fanout histogram
system.tol2bus.snoop_fanout::0                  13328     84.41%     84.41% # Request fanout histogram
system.tol2bus.snoop_fanout::1                   2461     15.59%    100.00% # Request fanout histogram
system.tol2bus.snoop_fanout::2                      0      0.00%    100.00% # Request fanout histogram
system.tol2bus.snoop_fanout::3                      0      0.00%    100.00% # Request fanout histogram
system.tol2bus.snoop_fanout::4                      0      0.00%    100.00% # Request fanout histogram
system.tol2bus.snoop_fanout::overflows              0      0.00%    100.00% # Request fanout histogram
system.tol2bus.snoop_fanout::min_value              0                       # Request fanout histogram
system.tol2bus.snoop_fanout::max_value              1                       # Request fanout histogram
system.tol2bus.snoop_fanout::total              15789                       # Request fanout histogram
system.tol2bus.reqLayer0.occupancy           21957000                       # Layer occupancy (ticks)
system.tol2bus.reqLayer0.utilization              0.0                       # Layer utilization (%)
system.tol2bus.respLayer0.occupancy           7411999                       # Layer occupancy (ticks)
system.tol2bus.respLayer0.utilization             0.0                       # Layer utilization (%)
system.tol2bus.respLayer1.occupancy          10500490                       # Layer occupancy (ticks)
system.tol2bus.respLayer1.utilization             0.0                       # Layer utilization (%)

---------- End Simulation Statistics   ----------
