
---------- Begin Simulation Statistics ----------
sim_seconds                                  0.009257                       # Number of seconds simulated
sim_ticks                                  9257078000                       # Number of ticks simulated
final_tick                               4809430835500                       # Number of ticks from beginning of simulation (restored from checkpoints and never reset)
sim_freq                                 1000000000000                       # Frequency of simulated ticks
host_inst_rate                              125207642                       # Simulator instruction rate (inst/s)
host_op_rate                                270489041                       # Simulator op (including micro ops) rate (op/s)
host_tick_rate                             2334196918                       # Simulator tick rate (ticks/s)
host_mem_usage                                2420048                       # Number of bytes of host memory used
host_seconds                                     3.97                       # Real time elapsed on the host
sim_insts                                   496553072                       # Number of instructions simulated
sim_ops                                    1072717436                       # Number of ops (including micro ops) simulated
system.voltage_domain.voltage                       1                       # Voltage in Volts
system.clk_domain.clock                          1000                       # Clock period in ticks
system.mem_ctrls.pwrStateResidencyTicks::UNDEFINED 4809430835500                       # Cumulative time (in ticks) in various power states
system.mem_ctrls.bytes_read::switch_cpus0.inst           64                       # Number of bytes read from this memory
system.mem_ctrls.bytes_read::switch_cpus0.data           64                       # Number of bytes read from this memory
system.mem_ctrls.bytes_read::switch_cpus_10.inst         6144                       # Number of bytes read from this memory
system.mem_ctrls.bytes_read::switch_cpus_10.data        34240                       # Number of bytes read from this memory
system.mem_ctrls.bytes_read::switch_cpus_11.inst        19584                       # Number of bytes read from this memory
system.mem_ctrls.bytes_read::switch_cpus_11.data        87680                       # Number of bytes read from this memory
system.mem_ctrls.bytes_read::switch_cpus_12.inst        39552                       # Number of bytes read from this memory
system.mem_ctrls.bytes_read::switch_cpus_12.data        56768                       # Number of bytes read from this memory
system.mem_ctrls.bytes_read::switch_cpus_13.dtb.walker           64                       # Number of bytes read from this memory
system.mem_ctrls.bytes_read::switch_cpus_13.inst         4352                       # Number of bytes read from this memory
system.mem_ctrls.bytes_read::switch_cpus_13.data        16320                       # Number of bytes read from this memory
system.mem_ctrls.bytes_read::switch_cpus_14.inst        18752                       # Number of bytes read from this memory
system.mem_ctrls.bytes_read::switch_cpus_14.data        27648                       # Number of bytes read from this memory
system.mem_ctrls.bytes_read::switch_cpus_15.itb.walker           64                       # Number of bytes read from this memory
system.mem_ctrls.bytes_read::switch_cpus_15.inst        23488                       # Number of bytes read from this memory
system.mem_ctrls.bytes_read::switch_cpus_15.data       971072                       # Number of bytes read from this memory
system.mem_ctrls.bytes_read::switch_cpus_16.inst          640                       # Number of bytes read from this memory
system.mem_ctrls.bytes_read::switch_cpus_16.data         8896                       # Number of bytes read from this memory
system.mem_ctrls.bytes_read::switch_cpus_17.inst         7936                       # Number of bytes read from this memory
system.mem_ctrls.bytes_read::switch_cpus_17.data        16832                       # Number of bytes read from this memory
system.mem_ctrls.bytes_read::total            1340160                       # Number of bytes read from this memory
system.mem_ctrls.bytes_inst_read::switch_cpus0.inst           64                       # Number of instructions bytes read from this memory
system.mem_ctrls.bytes_inst_read::switch_cpus_10.inst         6144                       # Number of instructions bytes read from this memory
system.mem_ctrls.bytes_inst_read::switch_cpus_11.inst        19584                       # Number of instructions bytes read from this memory
system.mem_ctrls.bytes_inst_read::switch_cpus_12.inst        39552                       # Number of instructions bytes read from this memory
system.mem_ctrls.bytes_inst_read::switch_cpus_13.inst         4352                       # Number of instructions bytes read from this memory
system.mem_ctrls.bytes_inst_read::switch_cpus_14.inst        18752                       # Number of instructions bytes read from this memory
system.mem_ctrls.bytes_inst_read::switch_cpus_15.inst        23488                       # Number of instructions bytes read from this memory
system.mem_ctrls.bytes_inst_read::switch_cpus_16.inst          640                       # Number of instructions bytes read from this memory
system.mem_ctrls.bytes_inst_read::switch_cpus_17.inst         7936                       # Number of instructions bytes read from this memory
system.mem_ctrls.bytes_inst_read::total        120512                       # Number of instructions bytes read from this memory
system.mem_ctrls.bytes_written::writebacks      2588480                       # Number of bytes written to this memory
system.mem_ctrls.bytes_written::total         2588480                       # Number of bytes written to this memory
system.mem_ctrls.num_reads::switch_cpus0.inst            1                       # Number of read requests responded to by this memory
system.mem_ctrls.num_reads::switch_cpus0.data            1                       # Number of read requests responded to by this memory
system.mem_ctrls.num_reads::switch_cpus_10.inst           96                       # Number of read requests responded to by this memory
system.mem_ctrls.num_reads::switch_cpus_10.data          535                       # Number of read requests responded to by this memory
system.mem_ctrls.num_reads::switch_cpus_11.inst          306                       # Number of read requests responded to by this memory
system.mem_ctrls.num_reads::switch_cpus_11.data         1370                       # Number of read requests responded to by this memory
system.mem_ctrls.num_reads::switch_cpus_12.inst          618                       # Number of read requests responded to by this memory
system.mem_ctrls.num_reads::switch_cpus_12.data          887                       # Number of read requests responded to by this memory
system.mem_ctrls.num_reads::switch_cpus_13.dtb.walker            1                       # Number of read requests responded to by this memory
system.mem_ctrls.num_reads::switch_cpus_13.inst           68                       # Number of read requests responded to by this memory
system.mem_ctrls.num_reads::switch_cpus_13.data          255                       # Number of read requests responded to by this memory
system.mem_ctrls.num_reads::switch_cpus_14.inst          293                       # Number of read requests responded to by this memory
system.mem_ctrls.num_reads::switch_cpus_14.data          432                       # Number of read requests responded to by this memory
system.mem_ctrls.num_reads::switch_cpus_15.itb.walker            1                       # Number of read requests responded to by this memory
system.mem_ctrls.num_reads::switch_cpus_15.inst          367                       # Number of read requests responded to by this memory
system.mem_ctrls.num_reads::switch_cpus_15.data        15173                       # Number of read requests responded to by this memory
system.mem_ctrls.num_reads::switch_cpus_16.inst           10                       # Number of read requests responded to by this memory
system.mem_ctrls.num_reads::switch_cpus_16.data          139                       # Number of read requests responded to by this memory
system.mem_ctrls.num_reads::switch_cpus_17.inst          124                       # Number of read requests responded to by this memory
system.mem_ctrls.num_reads::switch_cpus_17.data          263                       # Number of read requests responded to by this memory
system.mem_ctrls.num_reads::total               20940                       # Number of read requests responded to by this memory
system.mem_ctrls.num_writes::writebacks         40445                       # Number of write requests responded to by this memory
system.mem_ctrls.num_writes::total              40445                       # Number of write requests responded to by this memory
system.mem_ctrls.bw_read::switch_cpus0.inst         6914                       # Total read bandwidth from this memory (bytes/s)
system.mem_ctrls.bw_read::switch_cpus0.data         6914                       # Total read bandwidth from this memory (bytes/s)
system.mem_ctrls.bw_read::switch_cpus_10.inst       663708                       # Total read bandwidth from this memory (bytes/s)
system.mem_ctrls.bw_read::switch_cpus_10.data      3698791                       # Total read bandwidth from this memory (bytes/s)
system.mem_ctrls.bw_read::switch_cpus_11.inst      2115570                       # Total read bandwidth from this memory (bytes/s)
system.mem_ctrls.bw_read::switch_cpus_11.data      9471671                       # Total read bandwidth from this memory (bytes/s)
system.mem_ctrls.bw_read::switch_cpus_12.inst      4272623                       # Total read bandwidth from this memory (bytes/s)
system.mem_ctrls.bw_read::switch_cpus_12.data      6132389                       # Total read bandwidth from this memory (bytes/s)
system.mem_ctrls.bw_read::switch_cpus_13.dtb.walker         6914                       # Total read bandwidth from this memory (bytes/s)
system.mem_ctrls.bw_read::switch_cpus_13.inst       470127                       # Total read bandwidth from this memory (bytes/s)
system.mem_ctrls.bw_read::switch_cpus_13.data      1762975                       # Total read bandwidth from this memory (bytes/s)
system.mem_ctrls.bw_read::switch_cpus_14.inst      2025693                       # Total read bandwidth from this memory (bytes/s)
system.mem_ctrls.bw_read::switch_cpus_14.data      2986688                       # Total read bandwidth from this memory (bytes/s)
system.mem_ctrls.bw_read::switch_cpus_15.itb.walker         6914                       # Total read bandwidth from this memory (bytes/s)
system.mem_ctrls.bw_read::switch_cpus_15.inst      2537302                       # Total read bandwidth from this memory (bytes/s)
system.mem_ctrls.bw_read::switch_cpus_15.data    104900488                       # Total read bandwidth from this memory (bytes/s)
system.mem_ctrls.bw_read::switch_cpus_16.inst        69136                       # Total read bandwidth from this memory (bytes/s)
system.mem_ctrls.bw_read::switch_cpus_16.data       960994                       # Total read bandwidth from this memory (bytes/s)
system.mem_ctrls.bw_read::switch_cpus_17.inst       857290                       # Total read bandwidth from this memory (bytes/s)
system.mem_ctrls.bw_read::switch_cpus_17.data      1818284                       # Total read bandwidth from this memory (bytes/s)
system.mem_ctrls.bw_read::total             144771385                       # Total read bandwidth from this memory (bytes/s)
system.mem_ctrls.bw_inst_read::switch_cpus0.inst         6914                       # Instruction read bandwidth from this memory (bytes/s)
system.mem_ctrls.bw_inst_read::switch_cpus_10.inst       663708                       # Instruction read bandwidth from this memory (bytes/s)
system.mem_ctrls.bw_inst_read::switch_cpus_11.inst      2115570                       # Instruction read bandwidth from this memory (bytes/s)
system.mem_ctrls.bw_inst_read::switch_cpus_12.inst      4272623                       # Instruction read bandwidth from this memory (bytes/s)
system.mem_ctrls.bw_inst_read::switch_cpus_13.inst       470127                       # Instruction read bandwidth from this memory (bytes/s)
system.mem_ctrls.bw_inst_read::switch_cpus_14.inst      2025693                       # Instruction read bandwidth from this memory (bytes/s)
system.mem_ctrls.bw_inst_read::switch_cpus_15.inst      2537302                       # Instruction read bandwidth from this memory (bytes/s)
system.mem_ctrls.bw_inst_read::switch_cpus_16.inst        69136                       # Instruction read bandwidth from this memory (bytes/s)
system.mem_ctrls.bw_inst_read::switch_cpus_17.inst       857290                       # Instruction read bandwidth from this memory (bytes/s)
system.mem_ctrls.bw_inst_read::total         13018363                       # Instruction read bandwidth from this memory (bytes/s)
system.mem_ctrls.bw_write::writebacks       279621712                       # Write bandwidth from this memory (bytes/s)
system.mem_ctrls.bw_write::total            279621712                       # Write bandwidth from this memory (bytes/s)
system.mem_ctrls.bw_total::writebacks       279621712                       # Total bandwidth to/from this memory (bytes/s)
system.mem_ctrls.bw_total::switch_cpus0.inst         6914                       # Total bandwidth to/from this memory (bytes/s)
system.mem_ctrls.bw_total::switch_cpus0.data         6914                       # Total bandwidth to/from this memory (bytes/s)
system.mem_ctrls.bw_total::switch_cpus_10.inst       663708                       # Total bandwidth to/from this memory (bytes/s)
system.mem_ctrls.bw_total::switch_cpus_10.data      3698791                       # Total bandwidth to/from this memory (bytes/s)
system.mem_ctrls.bw_total::switch_cpus_11.inst      2115570                       # Total bandwidth to/from this memory (bytes/s)
system.mem_ctrls.bw_total::switch_cpus_11.data      9471671                       # Total bandwidth to/from this memory (bytes/s)
system.mem_ctrls.bw_total::switch_cpus_12.inst      4272623                       # Total bandwidth to/from this memory (bytes/s)
system.mem_ctrls.bw_total::switch_cpus_12.data      6132389                       # Total bandwidth to/from this memory (bytes/s)
system.mem_ctrls.bw_total::switch_cpus_13.dtb.walker         6914                       # Total bandwidth to/from this memory (bytes/s)
system.mem_ctrls.bw_total::switch_cpus_13.inst       470127                       # Total bandwidth to/from this memory (bytes/s)
system.mem_ctrls.bw_total::switch_cpus_13.data      1762975                       # Total bandwidth to/from this memory (bytes/s)
system.mem_ctrls.bw_total::switch_cpus_14.inst      2025693                       # Total bandwidth to/from this memory (bytes/s)
system.mem_ctrls.bw_total::switch_cpus_14.data      2986688                       # Total bandwidth to/from this memory (bytes/s)
system.mem_ctrls.bw_total::switch_cpus_15.itb.walker         6914                       # Total bandwidth to/from this memory (bytes/s)
system.mem_ctrls.bw_total::switch_cpus_15.inst      2537302                       # Total bandwidth to/from this memory (bytes/s)
system.mem_ctrls.bw_total::switch_cpus_15.data    104900488                       # Total bandwidth to/from this memory (bytes/s)
system.mem_ctrls.bw_total::switch_cpus_16.inst        69136                       # Total bandwidth to/from this memory (bytes/s)
system.mem_ctrls.bw_total::switch_cpus_16.data       960994                       # Total bandwidth to/from this memory (bytes/s)
system.mem_ctrls.bw_total::switch_cpus_17.inst       857290                       # Total bandwidth to/from this memory (bytes/s)
system.mem_ctrls.bw_total::switch_cpus_17.data      1818284                       # Total bandwidth to/from this memory (bytes/s)
system.mem_ctrls.bw_total::total            424393097                       # Total bandwidth to/from this memory (bytes/s)
system.mem_ctrls.readReqs                       20938                       # Number of read requests accepted
system.mem_ctrls.writeReqs                      40443                       # Number of write requests accepted
system.mem_ctrls.readBursts                     20938                       # Number of DRAM read bursts, including those serviced by the write queue
system.mem_ctrls.writeBursts                    40443                       # Number of DRAM write bursts, including those merged in the write queue
system.mem_ctrls.bytesReadDRAM                1339456                       # Total number of bytes read from DRAM
system.mem_ctrls.bytesReadWrQ                     576                       # Total number of bytes read from write queue
system.mem_ctrls.bytesWritten                 2586368                       # Total number of bytes written to DRAM
system.mem_ctrls.bytesReadSys                 1340032                       # Total read bytes from the system interface side
system.mem_ctrls.bytesWrittenSys              2588352                       # Total written bytes from the system interface side
system.mem_ctrls.servicedByWrQ                      9                       # Number of DRAM read bursts serviced by the write queue
system.mem_ctrls.mergedWrBursts                     0                       # Number of DRAM write bursts merged with an existing one
system.mem_ctrls.neitherReadNorWriteReqs            0                       # Number of requests that are neither read nor write
system.mem_ctrls.perBankRdBursts::0              1026                       # Per bank write bursts
system.mem_ctrls.perBankRdBursts::1              1009                       # Per bank write bursts
system.mem_ctrls.perBankRdBursts::2              1057                       # Per bank write bursts
system.mem_ctrls.perBankRdBursts::3              1103                       # Per bank write bursts
system.mem_ctrls.perBankRdBursts::4              1457                       # Per bank write bursts
system.mem_ctrls.perBankRdBursts::5              1530                       # Per bank write bursts
system.mem_ctrls.perBankRdBursts::6              1462                       # Per bank write bursts
system.mem_ctrls.perBankRdBursts::7              1494                       # Per bank write bursts
system.mem_ctrls.perBankRdBursts::8              1662                       # Per bank write bursts
system.mem_ctrls.perBankRdBursts::9              1288                       # Per bank write bursts
system.mem_ctrls.perBankRdBursts::10             1408                       # Per bank write bursts
system.mem_ctrls.perBankRdBursts::11             1161                       # Per bank write bursts
system.mem_ctrls.perBankRdBursts::12             1221                       # Per bank write bursts
system.mem_ctrls.perBankRdBursts::13             1440                       # Per bank write bursts
system.mem_ctrls.perBankRdBursts::14             1361                       # Per bank write bursts
system.mem_ctrls.perBankRdBursts::15             1250                       # Per bank write bursts
system.mem_ctrls.perBankWrBursts::0              2194                       # Per bank write bursts
system.mem_ctrls.perBankWrBursts::1              2144                       # Per bank write bursts
system.mem_ctrls.perBankWrBursts::2              2009                       # Per bank write bursts
system.mem_ctrls.perBankWrBursts::3              1992                       # Per bank write bursts
system.mem_ctrls.perBankWrBursts::4              2515                       # Per bank write bursts
system.mem_ctrls.perBankWrBursts::5              2418                       # Per bank write bursts
system.mem_ctrls.perBankWrBursts::6              2439                       # Per bank write bursts
system.mem_ctrls.perBankWrBursts::7              2680                       # Per bank write bursts
system.mem_ctrls.perBankWrBursts::8              2938                       # Per bank write bursts
system.mem_ctrls.perBankWrBursts::9              2840                       # Per bank write bursts
system.mem_ctrls.perBankWrBursts::10             2658                       # Per bank write bursts
system.mem_ctrls.perBankWrBursts::11             2651                       # Per bank write bursts
system.mem_ctrls.perBankWrBursts::12             2678                       # Per bank write bursts
system.mem_ctrls.perBankWrBursts::13             2786                       # Per bank write bursts
system.mem_ctrls.perBankWrBursts::14             2986                       # Per bank write bursts
system.mem_ctrls.perBankWrBursts::15             2484                       # Per bank write bursts
system.mem_ctrls.numRdRetry                         0                       # Number of times read queue was full causing retry
system.mem_ctrls.numWrRetry                        49                       # Number of times write queue was full causing retry
system.mem_ctrls.totGap                    9232782500                       # Total gap between requests
system.mem_ctrls.readPktSize::0                     0                       # Read request sizes (log2)
system.mem_ctrls.readPktSize::1                     0                       # Read request sizes (log2)
system.mem_ctrls.readPktSize::2                     0                       # Read request sizes (log2)
system.mem_ctrls.readPktSize::3                     0                       # Read request sizes (log2)
system.mem_ctrls.readPktSize::4                     0                       # Read request sizes (log2)
system.mem_ctrls.readPktSize::5                     0                       # Read request sizes (log2)
system.mem_ctrls.readPktSize::6                 20938                       # Read request sizes (log2)
system.mem_ctrls.writePktSize::0                    0                       # Write request sizes (log2)
system.mem_ctrls.writePktSize::1                    0                       # Write request sizes (log2)
system.mem_ctrls.writePktSize::2                    0                       # Write request sizes (log2)
system.mem_ctrls.writePktSize::3                    0                       # Write request sizes (log2)
system.mem_ctrls.writePktSize::4                    0                       # Write request sizes (log2)
system.mem_ctrls.writePktSize::5                    0                       # Write request sizes (log2)
system.mem_ctrls.writePktSize::6                40443                       # Write request sizes (log2)
system.mem_ctrls.rdQLenPdf::0                   20751                       # What read queue length does an incoming req see
system.mem_ctrls.rdQLenPdf::1                     165                       # What read queue length does an incoming req see
system.mem_ctrls.rdQLenPdf::2                      11                       # What read queue length does an incoming req see
system.mem_ctrls.rdQLenPdf::3                       2                       # What read queue length does an incoming req see
system.mem_ctrls.rdQLenPdf::4                       0                       # What read queue length does an incoming req see
system.mem_ctrls.rdQLenPdf::5                       0                       # What read queue length does an incoming req see
system.mem_ctrls.rdQLenPdf::6                       0                       # What read queue length does an incoming req see
system.mem_ctrls.rdQLenPdf::7                       0                       # What read queue length does an incoming req see
system.mem_ctrls.rdQLenPdf::8                       0                       # What read queue length does an incoming req see
system.mem_ctrls.rdQLenPdf::9                       0                       # What read queue length does an incoming req see
system.mem_ctrls.rdQLenPdf::10                      0                       # What read queue length does an incoming req see
system.mem_ctrls.rdQLenPdf::11                      0                       # What read queue length does an incoming req see
system.mem_ctrls.rdQLenPdf::12                      0                       # What read queue length does an incoming req see
system.mem_ctrls.rdQLenPdf::13                      0                       # What read queue length does an incoming req see
system.mem_ctrls.rdQLenPdf::14                      0                       # What read queue length does an incoming req see
system.mem_ctrls.rdQLenPdf::15                      0                       # What read queue length does an incoming req see
system.mem_ctrls.rdQLenPdf::16                      0                       # What read queue length does an incoming req see
system.mem_ctrls.rdQLenPdf::17                      0                       # What read queue length does an incoming req see
system.mem_ctrls.rdQLenPdf::18                      0                       # What read queue length does an incoming req see
system.mem_ctrls.rdQLenPdf::19                      0                       # What read queue length does an incoming req see
system.mem_ctrls.rdQLenPdf::20                      0                       # What read queue length does an incoming req see
system.mem_ctrls.rdQLenPdf::21                      0                       # What read queue length does an incoming req see
system.mem_ctrls.rdQLenPdf::22                      0                       # What read queue length does an incoming req see
system.mem_ctrls.rdQLenPdf::23                      0                       # What read queue length does an incoming req see
system.mem_ctrls.rdQLenPdf::24                      0                       # What read queue length does an incoming req see
system.mem_ctrls.rdQLenPdf::25                      0                       # What read queue length does an incoming req see
system.mem_ctrls.rdQLenPdf::26                      0                       # What read queue length does an incoming req see
system.mem_ctrls.rdQLenPdf::27                      0                       # What read queue length does an incoming req see
system.mem_ctrls.rdQLenPdf::28                      0                       # What read queue length does an incoming req see
system.mem_ctrls.rdQLenPdf::29                      0                       # What read queue length does an incoming req see
system.mem_ctrls.rdQLenPdf::30                      0                       # What read queue length does an incoming req see
system.mem_ctrls.rdQLenPdf::31                      0                       # What read queue length does an incoming req see
system.mem_ctrls.wrQLenPdf::0                       1                       # What write queue length does an incoming req see
system.mem_ctrls.wrQLenPdf::1                       1                       # What write queue length does an incoming req see
system.mem_ctrls.wrQLenPdf::2                       1                       # What write queue length does an incoming req see
system.mem_ctrls.wrQLenPdf::3                       1                       # What write queue length does an incoming req see
system.mem_ctrls.wrQLenPdf::4                       1                       # What write queue length does an incoming req see
system.mem_ctrls.wrQLenPdf::5                       1                       # What write queue length does an incoming req see
system.mem_ctrls.wrQLenPdf::6                       1                       # What write queue length does an incoming req see
system.mem_ctrls.wrQLenPdf::7                       1                       # What write queue length does an incoming req see
system.mem_ctrls.wrQLenPdf::8                       1                       # What write queue length does an incoming req see
system.mem_ctrls.wrQLenPdf::9                       1                       # What write queue length does an incoming req see
system.mem_ctrls.wrQLenPdf::10                      1                       # What write queue length does an incoming req see
system.mem_ctrls.wrQLenPdf::11                      1                       # What write queue length does an incoming req see
system.mem_ctrls.wrQLenPdf::12                      1                       # What write queue length does an incoming req see
system.mem_ctrls.wrQLenPdf::13                      1                       # What write queue length does an incoming req see
system.mem_ctrls.wrQLenPdf::14                      1                       # What write queue length does an incoming req see
system.mem_ctrls.wrQLenPdf::15                    611                       # What write queue length does an incoming req see
system.mem_ctrls.wrQLenPdf::16                   1310                       # What write queue length does an incoming req see
system.mem_ctrls.wrQLenPdf::17                   1537                       # What write queue length does an incoming req see
system.mem_ctrls.wrQLenPdf::18                   1511                       # What write queue length does an incoming req see
system.mem_ctrls.wrQLenPdf::19                   1695                       # What write queue length does an incoming req see
system.mem_ctrls.wrQLenPdf::20                   1501                       # What write queue length does an incoming req see
system.mem_ctrls.wrQLenPdf::21                   1702                       # What write queue length does an incoming req see
system.mem_ctrls.wrQLenPdf::22                   1918                       # What write queue length does an incoming req see
system.mem_ctrls.wrQLenPdf::23                   2712                       # What write queue length does an incoming req see
system.mem_ctrls.wrQLenPdf::24                   2463                       # What write queue length does an incoming req see
system.mem_ctrls.wrQLenPdf::25                   3545                       # What write queue length does an incoming req see
system.mem_ctrls.wrQLenPdf::26                   3882                       # What write queue length does an incoming req see
system.mem_ctrls.wrQLenPdf::27                   2423                       # What write queue length does an incoming req see
system.mem_ctrls.wrQLenPdf::28                   1908                       # What write queue length does an incoming req see
system.mem_ctrls.wrQLenPdf::29                   1980                       # What write queue length does an incoming req see
system.mem_ctrls.wrQLenPdf::30                   1780                       # What write queue length does an incoming req see
system.mem_ctrls.wrQLenPdf::31                   1587                       # What write queue length does an incoming req see
system.mem_ctrls.wrQLenPdf::32                   1597                       # What write queue length does an incoming req see
system.mem_ctrls.wrQLenPdf::33                    339                       # What write queue length does an incoming req see
system.mem_ctrls.wrQLenPdf::34                    341                       # What write queue length does an incoming req see
system.mem_ctrls.wrQLenPdf::35                    238                       # What write queue length does an incoming req see
system.mem_ctrls.wrQLenPdf::36                    220                       # What write queue length does an incoming req see
system.mem_ctrls.wrQLenPdf::37                    203                       # What write queue length does an incoming req see
system.mem_ctrls.wrQLenPdf::38                    220                       # What write queue length does an incoming req see
system.mem_ctrls.wrQLenPdf::39                    222                       # What write queue length does an incoming req see
system.mem_ctrls.wrQLenPdf::40                    186                       # What write queue length does an incoming req see
system.mem_ctrls.wrQLenPdf::41                    143                       # What write queue length does an incoming req see
system.mem_ctrls.wrQLenPdf::42                    205                       # What write queue length does an incoming req see
system.mem_ctrls.wrQLenPdf::43                    172                       # What write queue length does an incoming req see
system.mem_ctrls.wrQLenPdf::44                    147                       # What write queue length does an incoming req see
system.mem_ctrls.wrQLenPdf::45                    122                       # What write queue length does an incoming req see
system.mem_ctrls.wrQLenPdf::46                    131                       # What write queue length does an incoming req see
system.mem_ctrls.wrQLenPdf::47                    126                       # What write queue length does an incoming req see
system.mem_ctrls.wrQLenPdf::48                    138                       # What write queue length does an incoming req see
system.mem_ctrls.wrQLenPdf::49                    135                       # What write queue length does an incoming req see
system.mem_ctrls.wrQLenPdf::50                    105                       # What write queue length does an incoming req see
system.mem_ctrls.wrQLenPdf::51                     67                       # What write queue length does an incoming req see
system.mem_ctrls.wrQLenPdf::52                    109                       # What write queue length does an incoming req see
system.mem_ctrls.wrQLenPdf::53                     96                       # What write queue length does an incoming req see
system.mem_ctrls.wrQLenPdf::54                     90                       # What write queue length does an incoming req see
system.mem_ctrls.wrQLenPdf::55                    104                       # What write queue length does an incoming req see
system.mem_ctrls.wrQLenPdf::56                    143                       # What write queue length does an incoming req see
system.mem_ctrls.wrQLenPdf::57                    134                       # What write queue length does an incoming req see
system.mem_ctrls.wrQLenPdf::58                     80                       # What write queue length does an incoming req see
system.mem_ctrls.wrQLenPdf::59                    144                       # What write queue length does an incoming req see
system.mem_ctrls.wrQLenPdf::60                    101                       # What write queue length does an incoming req see
system.mem_ctrls.wrQLenPdf::61                    143                       # What write queue length does an incoming req see
system.mem_ctrls.wrQLenPdf::62                     45                       # What write queue length does an incoming req see
system.mem_ctrls.wrQLenPdf::63                    117                       # What write queue length does an incoming req see
system.mem_ctrls.bytesPerActivate::samples         8614                       # Bytes accessed per row activation
system.mem_ctrls.bytesPerActivate::mean    455.719526                       # Bytes accessed per row activation
system.mem_ctrls.bytesPerActivate::gmean   256.735073                       # Bytes accessed per row activation
system.mem_ctrls.bytesPerActivate::stdev   411.906982                       # Bytes accessed per row activation
system.mem_ctrls.bytesPerActivate::0-127         2702     31.37%     31.37% # Bytes accessed per row activation
system.mem_ctrls.bytesPerActivate::128-255         1510     17.53%     48.90% # Bytes accessed per row activation
system.mem_ctrls.bytesPerActivate::256-383          632      7.34%     56.23% # Bytes accessed per row activation
system.mem_ctrls.bytesPerActivate::384-511          396      4.60%     60.83% # Bytes accessed per row activation
system.mem_ctrls.bytesPerActivate::512-639          303      3.52%     64.35% # Bytes accessed per row activation
system.mem_ctrls.bytesPerActivate::640-767          214      2.48%     66.83% # Bytes accessed per row activation
system.mem_ctrls.bytesPerActivate::768-895          173      2.01%     68.84% # Bytes accessed per row activation
system.mem_ctrls.bytesPerActivate::896-1023          155      1.80%     70.64% # Bytes accessed per row activation
system.mem_ctrls.bytesPerActivate::1024-1151         2529     29.36%    100.00% # Bytes accessed per row activation
system.mem_ctrls.bytesPerActivate::total         8614                       # Bytes accessed per row activation
system.mem_ctrls.rdPerTurnAround::samples         1276                       # Reads before turning the bus around for writes
system.mem_ctrls.rdPerTurnAround::mean      16.368339                       # Reads before turning the bus around for writes
system.mem_ctrls.rdPerTurnAround::stdev     24.700129                       # Reads before turning the bus around for writes
system.mem_ctrls.rdPerTurnAround::0-15            654     51.25%     51.25% # Reads before turning the bus around for writes
system.mem_ctrls.rdPerTurnAround::16-31           444     34.80%     86.05% # Reads before turning the bus around for writes
system.mem_ctrls.rdPerTurnAround::32-47            98      7.68%     93.73% # Reads before turning the bus around for writes
system.mem_ctrls.rdPerTurnAround::48-63            33      2.59%     96.32% # Reads before turning the bus around for writes
system.mem_ctrls.rdPerTurnAround::64-79            15      1.18%     97.49% # Reads before turning the bus around for writes
system.mem_ctrls.rdPerTurnAround::80-95            12      0.94%     98.43% # Reads before turning the bus around for writes
system.mem_ctrls.rdPerTurnAround::96-111            3      0.24%     98.67% # Reads before turning the bus around for writes
system.mem_ctrls.rdPerTurnAround::112-127            6      0.47%     99.14% # Reads before turning the bus around for writes
system.mem_ctrls.rdPerTurnAround::128-143            4      0.31%     99.45% # Reads before turning the bus around for writes
system.mem_ctrls.rdPerTurnAround::144-159            3      0.24%     99.69% # Reads before turning the bus around for writes
system.mem_ctrls.rdPerTurnAround::176-191            1      0.08%     99.76% # Reads before turning the bus around for writes
system.mem_ctrls.rdPerTurnAround::224-239            1      0.08%     99.84% # Reads before turning the bus around for writes
system.mem_ctrls.rdPerTurnAround::240-255            1      0.08%     99.92% # Reads before turning the bus around for writes
system.mem_ctrls.rdPerTurnAround::288-303            1      0.08%    100.00% # Reads before turning the bus around for writes
system.mem_ctrls.rdPerTurnAround::total          1276                       # Reads before turning the bus around for writes
system.mem_ctrls.wrPerTurnAround::samples         1276                       # Writes before turning the bus around for reads
system.mem_ctrls.wrPerTurnAround::mean      31.670846                       # Writes before turning the bus around for reads
system.mem_ctrls.wrPerTurnAround::gmean     25.840619                       # Writes before turning the bus around for reads
system.mem_ctrls.wrPerTurnAround::stdev     24.742846                       # Writes before turning the bus around for reads
system.mem_ctrls.wrPerTurnAround::16-19           668     52.35%     52.35% # Writes before turning the bus around for reads
system.mem_ctrls.wrPerTurnAround::20-23            43      3.37%     55.72% # Writes before turning the bus around for reads
system.mem_ctrls.wrPerTurnAround::24-27            26      2.04%     57.76% # Writes before turning the bus around for reads
system.mem_ctrls.wrPerTurnAround::28-31            38      2.98%     60.74% # Writes before turning the bus around for reads
system.mem_ctrls.wrPerTurnAround::32-35           202     15.83%     76.57% # Writes before turning the bus around for reads
system.mem_ctrls.wrPerTurnAround::36-39            24      1.88%     78.45% # Writes before turning the bus around for reads
system.mem_ctrls.wrPerTurnAround::40-43            25      1.96%     80.41% # Writes before turning the bus around for reads
system.mem_ctrls.wrPerTurnAround::44-47             9      0.71%     81.11% # Writes before turning the bus around for reads
system.mem_ctrls.wrPerTurnAround::48-51             8      0.63%     81.74% # Writes before turning the bus around for reads
system.mem_ctrls.wrPerTurnAround::52-55             6      0.47%     82.21% # Writes before turning the bus around for reads
system.mem_ctrls.wrPerTurnAround::56-59             3      0.24%     82.45% # Writes before turning the bus around for reads
system.mem_ctrls.wrPerTurnAround::60-63            11      0.86%     83.31% # Writes before turning the bus around for reads
system.mem_ctrls.wrPerTurnAround::64-67           149     11.68%     94.98% # Writes before turning the bus around for reads
system.mem_ctrls.wrPerTurnAround::68-71             6      0.47%     95.45% # Writes before turning the bus around for reads
system.mem_ctrls.wrPerTurnAround::72-75             6      0.47%     95.92% # Writes before turning the bus around for reads
system.mem_ctrls.wrPerTurnAround::76-79             8      0.63%     96.55% # Writes before turning the bus around for reads
system.mem_ctrls.wrPerTurnAround::80-83             4      0.31%     96.87% # Writes before turning the bus around for reads
system.mem_ctrls.wrPerTurnAround::84-87             3      0.24%     97.10% # Writes before turning the bus around for reads
system.mem_ctrls.wrPerTurnAround::92-95             1      0.08%     97.18% # Writes before turning the bus around for reads
system.mem_ctrls.wrPerTurnAround::96-99             1      0.08%     97.26% # Writes before turning the bus around for reads
system.mem_ctrls.wrPerTurnAround::104-107            1      0.08%     97.34% # Writes before turning the bus around for reads
system.mem_ctrls.wrPerTurnAround::108-111            7      0.55%     97.88% # Writes before turning the bus around for reads
system.mem_ctrls.wrPerTurnAround::116-119            2      0.16%     98.04% # Writes before turning the bus around for reads
system.mem_ctrls.wrPerTurnAround::120-123            1      0.08%     98.12% # Writes before turning the bus around for reads
system.mem_ctrls.wrPerTurnAround::128-131            8      0.63%     98.75% # Writes before turning the bus around for reads
system.mem_ctrls.wrPerTurnAround::132-135            2      0.16%     98.90% # Writes before turning the bus around for reads
system.mem_ctrls.wrPerTurnAround::140-143           10      0.78%     99.69% # Writes before turning the bus around for reads
system.mem_ctrls.wrPerTurnAround::144-147            1      0.08%     99.76% # Writes before turning the bus around for reads
system.mem_ctrls.wrPerTurnAround::176-179            1      0.08%     99.84% # Writes before turning the bus around for reads
system.mem_ctrls.wrPerTurnAround::188-191            1      0.08%     99.92% # Writes before turning the bus around for reads
system.mem_ctrls.wrPerTurnAround::192-195            1      0.08%    100.00% # Writes before turning the bus around for reads
system.mem_ctrls.wrPerTurnAround::total          1276                       # Writes before turning the bus around for reads
system.mem_ctrls.totQLat                    442656250                       # Total ticks spent queuing
system.mem_ctrls.totMemAccLat               835075000                       # Total ticks spent from burst creation until serviced by the DRAM
system.mem_ctrls.totBusLat                  104645000                       # Total ticks spent in databus transfers
system.mem_ctrls.avgQLat                     21150.38                       # Average queueing delay per DRAM burst
system.mem_ctrls.avgBusLat                    5000.00                       # Average bus latency per DRAM burst
system.mem_ctrls.avgMemAccLat                39900.38                       # Average memory access latency per DRAM burst
system.mem_ctrls.avgRdBW                       144.70                       # Average DRAM read bandwidth in MiByte/s
system.mem_ctrls.avgWrBW                       279.39                       # Average achieved write bandwidth in MiByte/s
system.mem_ctrls.avgRdBWSys                    144.76                       # Average system read bandwidth in MiByte/s
system.mem_ctrls.avgWrBWSys                    279.61                       # Average system write bandwidth in MiByte/s
system.mem_ctrls.peakBW                      12800.00                       # Theoretical peak bandwidth in MiByte/s
system.mem_ctrls.busUtil                         3.31                       # Data bus utilization in percentage
system.mem_ctrls.busUtilRead                     1.13                       # Data bus utilization in percentage for reads
system.mem_ctrls.busUtilWrite                    2.18                       # Data bus utilization in percentage for writes
system.mem_ctrls.avgRdQLen                       1.00                       # Average read queue length when enqueuing
system.mem_ctrls.avgWrQLen                      25.06                       # Average write queue length when enqueuing
system.mem_ctrls.readRowHits                    18028                       # Number of row buffer hits during reads
system.mem_ctrls.writeRowHits                   34696                       # Number of row buffer hits during writes
system.mem_ctrls.readRowHitRate                 86.14                       # Row buffer hit rate for reads
system.mem_ctrls.writeRowHitRate                85.79                       # Row buffer hit rate for writes
system.mem_ctrls.avgGap                     150417.60                       # Average gap between requests
system.mem_ctrls.pageHitRate                    85.91                       # Row buffer hit rate, read and write combined
system.mem_ctrls_0.actEnergy                 28788480                       # Energy for activate commands per rank (pJ)
system.mem_ctrls_0.preEnergy                 15297645                       # Energy for precharge commands per rank (pJ)
system.mem_ctrls_0.readEnergy                72385320                       # Energy for read commands per rank (pJ)
system.mem_ctrls_0.writeEnergy               96001020                       # Energy for write commands per rank (pJ)
system.mem_ctrls_0.refreshEnergy         435779760.000000                       # Energy for refresh commands per rank (pJ)
system.mem_ctrls_0.actBackEnergy            488126910                       # Energy for active background per rank (pJ)
system.mem_ctrls_0.preBackEnergy             27348960                       # Energy for precharge background per rank (pJ)
system.mem_ctrls_0.actPowerDownEnergy       932972010                       # Energy for active power-down per rank (pJ)
system.mem_ctrls_0.prePowerDownEnergy       542376000                       # Energy for precharge power-down per rank (pJ)
system.mem_ctrls_0.selfRefreshEnergy       1179668640                       # Energy for self refresh per rank (pJ)
system.mem_ctrls_0.totalEnergy             3818744745                       # Total energy per rank (pJ)
system.mem_ctrls_0.averagePower            412.521613                       # Core power per rank (mW)
system.mem_ctrls_0.totalIdleTime           8083862000                       # Total Idle time Per DRAM Rank
system.mem_ctrls_0.memoryStateTime::IDLE     49816250                       # Time in different power states
system.mem_ctrls_0.memoryStateTime::REF     185132000                       # Time in different power states
system.mem_ctrls_0.memoryStateTime::SREF   4625372750                       # Time in different power states
system.mem_ctrls_0.memoryStateTime::PRE_PDN   1412463750                       # Time in different power states
system.mem_ctrls_0.memoryStateTime::ACT     914260750                       # Time in different power states
system.mem_ctrls_0.memoryStateTime::ACT_PDN   2046204500                       # Time in different power states
system.mem_ctrls_1.actEnergy                 32736900                       # Energy for activate commands per rank (pJ)
system.mem_ctrls_1.preEnergy                 17392485                       # Energy for precharge commands per rank (pJ)
system.mem_ctrls_1.readEnergy                77047740                       # Energy for read commands per rank (pJ)
system.mem_ctrls_1.writeEnergy              114949620                       # Energy for write commands per rank (pJ)
system.mem_ctrls_1.refreshEnergy         464667840.000000                       # Energy for refresh commands per rank (pJ)
system.mem_ctrls_1.actBackEnergy            553099500                       # Energy for active background per rank (pJ)
system.mem_ctrls_1.preBackEnergy             27180000                       # Energy for precharge background per rank (pJ)
system.mem_ctrls_1.actPowerDownEnergy      1019304210                       # Energy for active power-down per rank (pJ)
system.mem_ctrls_1.prePowerDownEnergy       573488160                       # Energy for precharge power-down per rank (pJ)
system.mem_ctrls_1.selfRefreshEnergy       1079690640                       # Energy for self refresh per rank (pJ)
system.mem_ctrls_1.totalEnergy             3959606265                       # Total energy per rank (pJ)
system.mem_ctrls_1.averagePower            427.738241                       # Core power per rank (mW)
system.mem_ctrls_1.totalIdleTime           7949074750                       # Total Idle time Per DRAM Rank
system.mem_ctrls_1.memoryStateTime::IDLE     38824250                       # Time in different power states
system.mem_ctrls_1.memoryStateTime::REF     197322000                       # Time in different power states
system.mem_ctrls_1.memoryStateTime::SREF   4220184500                       # Time in different power states
system.mem_ctrls_1.memoryStateTime::PRE_PDN   1493476000                       # Time in different power states
system.mem_ctrls_1.memoryStateTime::ACT    1047986750                       # Time in different power states
system.mem_ctrls_1.memoryStateTime::ACT_PDN   2235456500                       # Time in different power states
system.pwrStateResidencyTicks::UNDEFINED 4809430835500                       # Cumulative time (in ticks) in various power states
system.apicbridge.pwrStateResidencyTicks::UNDEFINED 4809430835500                       # Cumulative time (in ticks) in various power states
system.bridge.pwrStateResidencyTicks::UNDEFINED 4809430835500                       # Cumulative time (in ticks) in various power states
system.cpu_voltage_domain.voltage                   1                       # Voltage in Volts
system.cpu_clk_domain.clock                       500                       # Clock period in ticks
system.cpu0.dtb.walker.pwrStateResidencyTicks::UNDEFINED 4809430835500                       # Cumulative time (in ticks) in various power states
system.cpu0.dtb.rdAccesses                          0                       # TLB accesses on read requests
system.cpu0.dtb.wrAccesses                          0                       # TLB accesses on write requests
system.cpu0.dtb.rdMisses                            0                       # TLB misses on read requests
system.cpu0.dtb.wrMisses                            0                       # TLB misses on write requests
system.cpu0.apic_clk_domain.clock                8000                       # Clock period in ticks
system.cpu0.interrupts.pwrStateResidencyTicks::UNDEFINED 4809430835500                       # Cumulative time (in ticks) in various power states
system.cpu0.itb.walker.pwrStateResidencyTicks::UNDEFINED 4809430835500                       # Cumulative time (in ticks) in various power states
system.cpu0.itb.rdAccesses                          0                       # TLB accesses on read requests
system.cpu0.itb.wrAccesses                          0                       # TLB accesses on write requests
system.cpu0.itb.rdMisses                            0                       # TLB misses on read requests
system.cpu0.itb.wrMisses                            0                       # TLB misses on write requests
system.cpu0.pwrStateResidencyTicks::OFF  4809430833500                       # Cumulative time (in ticks) in various power states
system.cpu0.numCycles                               0                       # number of cpu cycles simulated
system.cpu0.numWorkItemsStarted                     0                       # number of work items this cpu started
system.cpu0.numWorkItemsCompleted                   0                       # number of work items this cpu completed
system.cpu0.kern.inst.arm                           0                       # number of arm instructions executed
system.cpu0.kern.inst.quiesce                       0                       # number of quiesce instructions executed
system.cpu0.committedInsts                          0                       # Number of instructions committed
system.cpu0.committedOps                            0                       # Number of ops (including micro ops) committed
system.cpu0.num_int_alu_accesses                    0                       # Number of integer alu accesses
system.cpu0.num_fp_alu_accesses                     0                       # Number of float alu accesses
system.cpu0.num_vec_alu_accesses                    0                       # Number of vector alu accesses
system.cpu0.num_func_calls                          0                       # number of times a function call or return occured
system.cpu0.num_conditional_control_insts            0                       # number of instructions that are conditional controls
system.cpu0.num_int_insts                           0                       # number of integer instructions
system.cpu0.num_fp_insts                            0                       # number of float instructions
system.cpu0.num_vec_insts                           0                       # number of vector instructions
system.cpu0.num_int_register_reads                  0                       # number of times the integer registers were read
system.cpu0.num_int_register_writes                 0                       # number of times the integer registers were written
system.cpu0.num_fp_register_reads                   0                       # number of times the floating registers were read
system.cpu0.num_fp_register_writes                  0                       # number of times the floating registers were written
system.cpu0.num_vec_register_reads                  0                       # number of times the vector registers were read
system.cpu0.num_vec_register_writes                 0                       # number of times the vector registers were written
system.cpu0.num_mem_refs                            0                       # number of memory refs
system.cpu0.num_load_insts                          0                       # Number of load instructions
system.cpu0.num_store_insts                         0                       # Number of store instructions
system.cpu0.num_idle_cycles                         0                       # Number of idle cycles
system.cpu0.num_busy_cycles                         0                       # Number of busy cycles
system.cpu0.not_idle_fraction                       1                       # Percentage of non-idle cycles
system.cpu0.idle_fraction                           0                       # Percentage of idle cycles
system.cpu0.op_class::No_OpClass                    0                       # Class of executed instruction
system.cpu0.op_class::IntAlu                        0                       # Class of executed instruction
system.cpu0.op_class::IntMult                       0                       # Class of executed instruction
system.cpu0.op_class::IntDiv                        0                       # Class of executed instruction
system.cpu0.op_class::FloatAdd                      0                       # Class of executed instruction
system.cpu0.op_class::FloatCmp                      0                       # Class of executed instruction
system.cpu0.op_class::FloatCvt                      0                       # Class of executed instruction
system.cpu0.op_class::FloatMult                     0                       # Class of executed instruction
system.cpu0.op_class::FloatMultAcc                  0                       # Class of executed instruction
system.cpu0.op_class::FloatDiv                      0                       # Class of executed instruction
system.cpu0.op_class::FloatMisc                     0                       # Class of executed instruction
system.cpu0.op_class::FloatSqrt                     0                       # Class of executed instruction
system.cpu0.op_class::SimdAdd                       0                       # Class of executed instruction
system.cpu0.op_class::SimdAddAcc                    0                       # Class of executed instruction
system.cpu0.op_class::SimdAlu                       0                       # Class of executed instruction
system.cpu0.op_class::SimdCmp                       0                       # Class of executed instruction
system.cpu0.op_class::SimdCvt                       0                       # Class of executed instruction
system.cpu0.op_class::SimdMisc                      0                       # Class of executed instruction
system.cpu0.op_class::SimdMult                      0                       # Class of executed instruction
system.cpu0.op_class::SimdMultAcc                   0                       # Class of executed instruction
system.cpu0.op_class::SimdShift                     0                       # Class of executed instruction
system.cpu0.op_class::SimdShiftAcc                  0                       # Class of executed instruction
system.cpu0.op_class::SimdSqrt                      0                       # Class of executed instruction
system.cpu0.op_class::SimdFloatAdd                  0                       # Class of executed instruction
system.cpu0.op_class::SimdFloatAlu                  0                       # Class of executed instruction
system.cpu0.op_class::SimdFloatCmp                  0                       # Class of executed instruction
system.cpu0.op_class::SimdFloatCvt                  0                       # Class of executed instruction
system.cpu0.op_class::SimdFloatDiv                  0                       # Class of executed instruction
system.cpu0.op_class::SimdFloatMisc                 0                       # Class of executed instruction
system.cpu0.op_class::SimdFloatMult                 0                       # Class of executed instruction
system.cpu0.op_class::SimdFloatMultAcc              0                       # Class of executed instruction
system.cpu0.op_class::SimdFloatSqrt                 0                       # Class of executed instruction
system.cpu0.op_class::MemRead                       0                       # Class of executed instruction
system.cpu0.op_class::MemWrite                      0                       # Class of executed instruction
system.cpu0.op_class::FloatMemRead                  0                       # Class of executed instruction
system.cpu0.op_class::FloatMemWrite                 0                       # Class of executed instruction
system.cpu0.op_class::IprAccess                     0                       # Class of executed instruction
system.cpu0.op_class::InstPrefetch                  0                       # Class of executed instruction
system.cpu0.op_class::total                         0                       # Class of executed instruction
system.cpu0.dcache.tags.pwrStateResidencyTicks::UNDEFINED 4809430835500                       # Cumulative time (in ticks) in various power states
system.cpu0.dcache.tags.replacements             4308                       # number of replacements
system.cpu0.dcache.tags.tagsinuse          887.666346                       # Cycle average of tags in use
system.cpu0.dcache.tags.total_refs             117807                       # Total number of references to valid blocks.
system.cpu0.dcache.tags.sampled_refs             4308                       # Sample count of references to valid blocks.
system.cpu0.dcache.tags.avg_refs            27.346100                       # Average number of references to valid blocks.
system.cpu0.dcache.tags.warmup_cycle                0                       # Cycle when the warmup percentage was hit.
system.cpu0.dcache.tags.occ_blocks::switch_cpus0.data   110.132529                       # Average occupied blocks per requestor
system.cpu0.dcache.tags.occ_blocks::switch_cpus_10.data   777.533817                       # Average occupied blocks per requestor
system.cpu0.dcache.tags.occ_percent::switch_cpus0.data     0.107551                       # Average percentage of cache occupancy
system.cpu0.dcache.tags.occ_percent::switch_cpus_10.data     0.759310                       # Average percentage of cache occupancy
system.cpu0.dcache.tags.occ_percent::total     0.866862                       # Average percentage of cache occupancy
system.cpu0.dcache.tags.occ_task_id_blocks::1024          782                       # Occupied blocks per task id
system.cpu0.dcache.tags.age_task_id_blocks_1024::0            8                       # Occupied blocks per task id
system.cpu0.dcache.tags.age_task_id_blocks_1024::3          766                       # Occupied blocks per task id
system.cpu0.dcache.tags.age_task_id_blocks_1024::4            8                       # Occupied blocks per task id
system.cpu0.dcache.tags.occ_task_id_percent::1024     0.763672                       # Percentage of cache occupancy per task id
system.cpu0.dcache.tags.tag_accesses           271513                       # Number of tag accesses
system.cpu0.dcache.tags.data_accesses          271513                       # Number of data accesses
system.cpu0.dcache.pwrStateResidencyTicks::UNDEFINED 4809430835500                       # Cumulative time (in ticks) in various power states
system.cpu0.dcache.ReadReq_hits::switch_cpus0.data         5734                       # number of ReadReq hits
system.cpu0.dcache.ReadReq_hits::switch_cpus_10.data        65295                       # number of ReadReq hits
system.cpu0.dcache.ReadReq_hits::total          71029                       # number of ReadReq hits
system.cpu0.dcache.WriteReq_hits::switch_cpus0.data         3160                       # number of WriteReq hits
system.cpu0.dcache.WriteReq_hits::switch_cpus_10.data        53788                       # number of WriteReq hits
system.cpu0.dcache.WriteReq_hits::total         56948                       # number of WriteReq hits
system.cpu0.dcache.SoftPFReq_hits::switch_cpus0.data            6                       # number of SoftPFReq hits
system.cpu0.dcache.SoftPFReq_hits::switch_cpus_10.data          126                       # number of SoftPFReq hits
system.cpu0.dcache.SoftPFReq_hits::total          132                       # number of SoftPFReq hits
system.cpu0.dcache.demand_hits::switch_cpus0.data         8894                       # number of demand (read+write) hits
system.cpu0.dcache.demand_hits::switch_cpus_10.data       119083                       # number of demand (read+write) hits
system.cpu0.dcache.demand_hits::total          127977                       # number of demand (read+write) hits
system.cpu0.dcache.overall_hits::switch_cpus0.data         8900                       # number of overall hits
system.cpu0.dcache.overall_hits::switch_cpus_10.data       119209                       # number of overall hits
system.cpu0.dcache.overall_hits::total         128109                       # number of overall hits
system.cpu0.dcache.ReadReq_misses::switch_cpus0.data           94                       # number of ReadReq misses
system.cpu0.dcache.ReadReq_misses::switch_cpus_10.data         2374                       # number of ReadReq misses
system.cpu0.dcache.ReadReq_misses::total         2468                       # number of ReadReq misses
system.cpu0.dcache.WriteReq_misses::switch_cpus0.data           59                       # number of WriteReq misses
system.cpu0.dcache.WriteReq_misses::switch_cpus_10.data         2331                       # number of WriteReq misses
system.cpu0.dcache.WriteReq_misses::total         2390                       # number of WriteReq misses
system.cpu0.dcache.SoftPFReq_misses::switch_cpus_10.data          410                       # number of SoftPFReq misses
system.cpu0.dcache.SoftPFReq_misses::total          410                       # number of SoftPFReq misses
system.cpu0.dcache.demand_misses::switch_cpus0.data          153                       # number of demand (read+write) misses
system.cpu0.dcache.demand_misses::switch_cpus_10.data         4705                       # number of demand (read+write) misses
system.cpu0.dcache.demand_misses::total          4858                       # number of demand (read+write) misses
system.cpu0.dcache.overall_misses::switch_cpus0.data          153                       # number of overall misses
system.cpu0.dcache.overall_misses::switch_cpus_10.data         5115                       # number of overall misses
system.cpu0.dcache.overall_misses::total         5268                       # number of overall misses
system.cpu0.dcache.ReadReq_miss_latency::switch_cpus_10.data     33487500                       # number of ReadReq miss cycles
system.cpu0.dcache.ReadReq_miss_latency::total     33487500                       # number of ReadReq miss cycles
system.cpu0.dcache.WriteReq_miss_latency::switch_cpus_10.data     60698500                       # number of WriteReq miss cycles
system.cpu0.dcache.WriteReq_miss_latency::total     60698500                       # number of WriteReq miss cycles
system.cpu0.dcache.demand_miss_latency::switch_cpus_10.data     94186000                       # number of demand (read+write) miss cycles
system.cpu0.dcache.demand_miss_latency::total     94186000                       # number of demand (read+write) miss cycles
system.cpu0.dcache.overall_miss_latency::switch_cpus_10.data     94186000                       # number of overall miss cycles
system.cpu0.dcache.overall_miss_latency::total     94186000                       # number of overall miss cycles
system.cpu0.dcache.ReadReq_accesses::switch_cpus0.data         5828                       # number of ReadReq accesses(hits+misses)
system.cpu0.dcache.ReadReq_accesses::switch_cpus_10.data        67669                       # number of ReadReq accesses(hits+misses)
system.cpu0.dcache.ReadReq_accesses::total        73497                       # number of ReadReq accesses(hits+misses)
system.cpu0.dcache.WriteReq_accesses::switch_cpus0.data         3219                       # number of WriteReq accesses(hits+misses)
system.cpu0.dcache.WriteReq_accesses::switch_cpus_10.data        56119                       # number of WriteReq accesses(hits+misses)
system.cpu0.dcache.WriteReq_accesses::total        59338                       # number of WriteReq accesses(hits+misses)
system.cpu0.dcache.SoftPFReq_accesses::switch_cpus0.data            6                       # number of SoftPFReq accesses(hits+misses)
system.cpu0.dcache.SoftPFReq_accesses::switch_cpus_10.data          536                       # number of SoftPFReq accesses(hits+misses)
system.cpu0.dcache.SoftPFReq_accesses::total          542                       # number of SoftPFReq accesses(hits+misses)
system.cpu0.dcache.demand_accesses::switch_cpus0.data         9047                       # number of demand (read+write) accesses
system.cpu0.dcache.demand_accesses::switch_cpus_10.data       123788                       # number of demand (read+write) accesses
system.cpu0.dcache.demand_accesses::total       132835                       # number of demand (read+write) accesses
system.cpu0.dcache.overall_accesses::switch_cpus0.data         9053                       # number of overall (read+write) accesses
system.cpu0.dcache.overall_accesses::switch_cpus_10.data       124324                       # number of overall (read+write) accesses
system.cpu0.dcache.overall_accesses::total       133377                       # number of overall (read+write) accesses
system.cpu0.dcache.ReadReq_miss_rate::switch_cpus0.data     0.016129                       # miss rate for ReadReq accesses
system.cpu0.dcache.ReadReq_miss_rate::switch_cpus_10.data     0.035083                       # miss rate for ReadReq accesses
system.cpu0.dcache.ReadReq_miss_rate::total     0.033580                       # miss rate for ReadReq accesses
system.cpu0.dcache.WriteReq_miss_rate::switch_cpus0.data     0.018329                       # miss rate for WriteReq accesses
system.cpu0.dcache.WriteReq_miss_rate::switch_cpus_10.data     0.041537                       # miss rate for WriteReq accesses
system.cpu0.dcache.WriteReq_miss_rate::total     0.040278                       # miss rate for WriteReq accesses
system.cpu0.dcache.SoftPFReq_miss_rate::switch_cpus_10.data     0.764925                       # miss rate for SoftPFReq accesses
system.cpu0.dcache.SoftPFReq_miss_rate::total     0.756458                       # miss rate for SoftPFReq accesses
system.cpu0.dcache.demand_miss_rate::switch_cpus0.data     0.016912                       # miss rate for demand accesses
system.cpu0.dcache.demand_miss_rate::switch_cpus_10.data     0.038009                       # miss rate for demand accesses
system.cpu0.dcache.demand_miss_rate::total     0.036572                       # miss rate for demand accesses
system.cpu0.dcache.overall_miss_rate::switch_cpus0.data     0.016900                       # miss rate for overall accesses
system.cpu0.dcache.overall_miss_rate::switch_cpus_10.data     0.041142                       # miss rate for overall accesses
system.cpu0.dcache.overall_miss_rate::total     0.039497                       # miss rate for overall accesses
system.cpu0.dcache.ReadReq_avg_miss_latency::switch_cpus_10.data 14105.939343                       # average ReadReq miss latency
system.cpu0.dcache.ReadReq_avg_miss_latency::total 13568.679092                       # average ReadReq miss latency
system.cpu0.dcache.WriteReq_avg_miss_latency::switch_cpus_10.data 26039.682540                       # average WriteReq miss latency
system.cpu0.dcache.WriteReq_avg_miss_latency::total 25396.861925                       # average WriteReq miss latency
system.cpu0.dcache.demand_avg_miss_latency::switch_cpus_10.data 20018.278427                       # average overall miss latency
system.cpu0.dcache.demand_avg_miss_latency::total 19387.813915                       # average overall miss latency
system.cpu0.dcache.overall_avg_miss_latency::switch_cpus_10.data 18413.685239                       # average overall miss latency
system.cpu0.dcache.overall_avg_miss_latency::total 17878.891420                       # average overall miss latency
system.cpu0.dcache.blocked_cycles::no_mshrs            0                       # number of cycles access was blocked
system.cpu0.dcache.blocked_cycles::no_targets            0                       # number of cycles access was blocked
system.cpu0.dcache.blocked::no_mshrs                0                       # number of cycles access was blocked
system.cpu0.dcache.blocked::no_targets              0                       # number of cycles access was blocked
system.cpu0.dcache.avg_blocked_cycles::no_mshrs          nan                       # average number of cycles each access was blocked
system.cpu0.dcache.avg_blocked_cycles::no_targets          nan                       # average number of cycles each access was blocked
system.cpu0.dcache.writebacks::writebacks         3027                       # number of writebacks
system.cpu0.dcache.writebacks::total             3027                       # number of writebacks
system.cpu0.dcache.WriteReq_mshr_hits::switch_cpus_10.data            4                       # number of WriteReq MSHR hits
system.cpu0.dcache.WriteReq_mshr_hits::total            4                       # number of WriteReq MSHR hits
system.cpu0.dcache.demand_mshr_hits::switch_cpus_10.data            4                       # number of demand (read+write) MSHR hits
system.cpu0.dcache.demand_mshr_hits::total            4                       # number of demand (read+write) MSHR hits
system.cpu0.dcache.overall_mshr_hits::switch_cpus_10.data            4                       # number of overall MSHR hits
system.cpu0.dcache.overall_mshr_hits::total            4                       # number of overall MSHR hits
system.cpu0.dcache.ReadReq_mshr_misses::switch_cpus_10.data         2374                       # number of ReadReq MSHR misses
system.cpu0.dcache.ReadReq_mshr_misses::total         2374                       # number of ReadReq MSHR misses
system.cpu0.dcache.WriteReq_mshr_misses::switch_cpus_10.data         2327                       # number of WriteReq MSHR misses
system.cpu0.dcache.WriteReq_mshr_misses::total         2327                       # number of WriteReq MSHR misses
system.cpu0.dcache.SoftPFReq_mshr_misses::switch_cpus_10.data          410                       # number of SoftPFReq MSHR misses
system.cpu0.dcache.SoftPFReq_mshr_misses::total          410                       # number of SoftPFReq MSHR misses
system.cpu0.dcache.demand_mshr_misses::switch_cpus_10.data         4701                       # number of demand (read+write) MSHR misses
system.cpu0.dcache.demand_mshr_misses::total         4701                       # number of demand (read+write) MSHR misses
system.cpu0.dcache.overall_mshr_misses::switch_cpus_10.data         5111                       # number of overall MSHR misses
system.cpu0.dcache.overall_mshr_misses::total         5111                       # number of overall MSHR misses
system.cpu0.dcache.ReadReq_mshr_uncacheable::switch_cpus_10.data           27                       # number of ReadReq MSHR uncacheable
system.cpu0.dcache.ReadReq_mshr_uncacheable::total           27                       # number of ReadReq MSHR uncacheable
system.cpu0.dcache.WriteReq_mshr_uncacheable::switch_cpus_10.data           46                       # number of WriteReq MSHR uncacheable
system.cpu0.dcache.WriteReq_mshr_uncacheable::total           46                       # number of WriteReq MSHR uncacheable
system.cpu0.dcache.overall_mshr_uncacheable_misses::switch_cpus_10.data           73                       # number of overall MSHR uncacheable misses
system.cpu0.dcache.overall_mshr_uncacheable_misses::total           73                       # number of overall MSHR uncacheable misses
system.cpu0.dcache.ReadReq_mshr_miss_latency::switch_cpus_10.data     31113500                       # number of ReadReq MSHR miss cycles
system.cpu0.dcache.ReadReq_mshr_miss_latency::total     31113500                       # number of ReadReq MSHR miss cycles
system.cpu0.dcache.WriteReq_mshr_miss_latency::switch_cpus_10.data     57784000                       # number of WriteReq MSHR miss cycles
system.cpu0.dcache.WriteReq_mshr_miss_latency::total     57784000                       # number of WriteReq MSHR miss cycles
system.cpu0.dcache.SoftPFReq_mshr_miss_latency::switch_cpus_10.data      4008500                       # number of SoftPFReq MSHR miss cycles
system.cpu0.dcache.SoftPFReq_mshr_miss_latency::total      4008500                       # number of SoftPFReq MSHR miss cycles
system.cpu0.dcache.demand_mshr_miss_latency::switch_cpus_10.data     88897500                       # number of demand (read+write) MSHR miss cycles
system.cpu0.dcache.demand_mshr_miss_latency::total     88897500                       # number of demand (read+write) MSHR miss cycles
system.cpu0.dcache.overall_mshr_miss_latency::switch_cpus_10.data     92906000                       # number of overall MSHR miss cycles
system.cpu0.dcache.overall_mshr_miss_latency::total     92906000                       # number of overall MSHR miss cycles
system.cpu0.dcache.ReadReq_mshr_uncacheable_latency::switch_cpus_10.data      4677000                       # number of ReadReq MSHR uncacheable cycles
system.cpu0.dcache.ReadReq_mshr_uncacheable_latency::total      4677000                       # number of ReadReq MSHR uncacheable cycles
system.cpu0.dcache.overall_mshr_uncacheable_latency::switch_cpus_10.data      4677000                       # number of overall MSHR uncacheable cycles
system.cpu0.dcache.overall_mshr_uncacheable_latency::total      4677000                       # number of overall MSHR uncacheable cycles
system.cpu0.dcache.ReadReq_mshr_miss_rate::switch_cpus_10.data     0.035083                       # mshr miss rate for ReadReq accesses
system.cpu0.dcache.ReadReq_mshr_miss_rate::total     0.032301                       # mshr miss rate for ReadReq accesses
system.cpu0.dcache.WriteReq_mshr_miss_rate::switch_cpus_10.data     0.041465                       # mshr miss rate for WriteReq accesses
system.cpu0.dcache.WriteReq_mshr_miss_rate::total     0.039216                       # mshr miss rate for WriteReq accesses
system.cpu0.dcache.SoftPFReq_mshr_miss_rate::switch_cpus_10.data     0.764925                       # mshr miss rate for SoftPFReq accesses
system.cpu0.dcache.SoftPFReq_mshr_miss_rate::total     0.756458                       # mshr miss rate for SoftPFReq accesses
system.cpu0.dcache.demand_mshr_miss_rate::switch_cpus_10.data     0.037976                       # mshr miss rate for demand accesses
system.cpu0.dcache.demand_mshr_miss_rate::total     0.035390                       # mshr miss rate for demand accesses
system.cpu0.dcache.overall_mshr_miss_rate::switch_cpus_10.data     0.041110                       # mshr miss rate for overall accesses
system.cpu0.dcache.overall_mshr_miss_rate::total     0.038320                       # mshr miss rate for overall accesses
system.cpu0.dcache.ReadReq_avg_mshr_miss_latency::switch_cpus_10.data 13105.939343                       # average ReadReq mshr miss latency
system.cpu0.dcache.ReadReq_avg_mshr_miss_latency::total 13105.939343                       # average ReadReq mshr miss latency
system.cpu0.dcache.WriteReq_avg_mshr_miss_latency::switch_cpus_10.data 24831.972497                       # average WriteReq mshr miss latency
system.cpu0.dcache.WriteReq_avg_mshr_miss_latency::total 24831.972497                       # average WriteReq mshr miss latency
system.cpu0.dcache.SoftPFReq_avg_mshr_miss_latency::switch_cpus_10.data  9776.829268                       # average SoftPFReq mshr miss latency
system.cpu0.dcache.SoftPFReq_avg_mshr_miss_latency::total  9776.829268                       # average SoftPFReq mshr miss latency
system.cpu0.dcache.demand_avg_mshr_miss_latency::switch_cpus_10.data 18910.338226                       # average overall mshr miss latency
system.cpu0.dcache.demand_avg_mshr_miss_latency::total 18910.338226                       # average overall mshr miss latency
system.cpu0.dcache.overall_avg_mshr_miss_latency::switch_cpus_10.data 18177.656036                       # average overall mshr miss latency
system.cpu0.dcache.overall_avg_mshr_miss_latency::total 18177.656036                       # average overall mshr miss latency
system.cpu0.dcache.ReadReq_avg_mshr_uncacheable_latency::switch_cpus_10.data 173222.222222                       # average ReadReq mshr uncacheable latency
system.cpu0.dcache.ReadReq_avg_mshr_uncacheable_latency::total 173222.222222                       # average ReadReq mshr uncacheable latency
system.cpu0.dcache.overall_avg_mshr_uncacheable_latency::switch_cpus_10.data 64068.493151                       # average overall mshr uncacheable latency
[...]
system.tol2bus.trans_dist::ReadResp            235893                       # Transaction distribution
system.tol2bus.trans_dist::WriteReq              3468                       # Transaction distribution
system.tol2bus.trans_dist::WriteResp             3469                       # Transaction distribution
system.tol2bus.trans_dist::WritebackDirty        51768                       # Transaction distribution
system.tol2bus.trans_dist::WritebackClean        79417                       # Transaction distribution
system.tol2bus.trans_dist::CleanEvict           78880                       # Transaction distribution
system.tol2bus.trans_dist::UpgradeReq           21871                       # Transaction distribution
system.tol2bus.trans_dist::UpgradeResp          21871                       # Transaction distribution
system.tol2bus.trans_dist::ReadExReq            12366                       # Transaction distribution
system.tol2bus.trans_dist::ReadExResp           12366                       # Transaction distribution
system.tol2bus.trans_dist::ReadCleanReq         79417                       # Transaction distribution
system.tol2bus.trans_dist::ReadSharedReq       156372                       # Transaction distribution
system.tol2bus.pkt_count_system.cpu0.icache.mem_side::system.l2.cpu_side        45045                       # Packet count per connected master and slave (bytes)
system.tol2bus.pkt_count_system.cpu0.dcache.mem_side::system.l2.cpu_side        54941                       # Packet count per connected master and slave (bytes)
system.tol2bus.pkt_count_system.cpu0.dtb_walker_cache.mem_side::system.l2.cpu_side           46                       # Packet count per connected master and slave (bytes)
system.tol2bus.pkt_count_system.cpu1.icache.mem_side::system.l2.cpu_side        27219                       # Packet count per connected master and slave (bytes)
system.tol2bus.pkt_count_system.cpu1.dcache.mem_side::system.l2.cpu_side        45239                       # Packet count per connected master and slave (bytes)
system.tol2bus.pkt_count_system.cpu1.dtb_walker_cache.mem_side::system.l2.cpu_side           24                       # Packet count per connected master and slave (bytes)
system.tol2bus.pkt_count_system.cpu2.icache.mem_side::system.l2.cpu_side        29919                       # Packet count per connected master and slave (bytes)
system.tol2bus.pkt_count_system.cpu2.dcache.mem_side::system.l2.cpu_side        50999                       # Packet count per connected master and slave (bytes)
system.tol2bus.pkt_count_system.cpu2.dtb_walker_cache.mem_side::system.l2.cpu_side           45                       # Packet count per connected master and slave (bytes)
system.tol2bus.pkt_count_system.cpu3.icache.mem_side::system.l2.cpu_side        28794                       # Packet count per connected master and slave (bytes)
system.tol2bus.pkt_count_system.cpu3.dcache.mem_side::system.l2.cpu_side        51743                       # Packet count per connected master and slave (bytes)
system.tol2bus.pkt_count_system.cpu3.dtb_walker_cache.mem_side::system.l2.cpu_side            9                       # Packet count per connected master and slave (bytes)
system.tol2bus.pkt_count_system.cpu4.icache.mem_side::system.l2.cpu_side        28875                       # Packet count per connected master and slave (bytes)
system.tol2bus.pkt_count_system.cpu4.dcache.mem_side::system.l2.cpu_side        49986                       # Packet count per connected master and slave (bytes)
system.tol2bus.pkt_count_system.cpu4.dtb_walker_cache.mem_side::system.l2.cpu_side           12                       # Packet count per connected master and slave (bytes)
system.tol2bus.pkt_count_system.cpu5.icache.mem_side::system.l2.cpu_side        22716                       # Packet count per connected master and slave (bytes)
system.tol2bus.pkt_count_system.cpu5.dcache.mem_side::system.l2.cpu_side        50509                       # Packet count per connected master and slave (bytes)
system.tol2bus.pkt_count_system.cpu5.itb_walker_cache.mem_side::system.l2.cpu_side           68                       # Packet count per connected master and slave (bytes)
system.tol2bus.pkt_count_system.cpu5.dtb_walker_cache.mem_side::system.l2.cpu_side          718                       # Packet count per connected master and slave (bytes)
system.tol2bus.pkt_count_system.cpu6.icache.mem_side::system.l2.cpu_side        29430                       # Packet count per connected master and slave (bytes)
system.tol2bus.pkt_count_system.cpu6.dcache.mem_side::system.l2.cpu_side        47611                       # Packet count per connected master and slave (bytes)
system.tol2bus.pkt_count_system.cpu6.dtb_walker_cache.mem_side::system.l2.cpu_side           18                       # Packet count per connected master and slave (bytes)
system.tol2bus.pkt_count_system.cpu7.icache.mem_side::system.l2.cpu_side        26253                       # Packet count per connected master and slave (bytes)
system.tol2bus.pkt_count_system.cpu7.dcache.mem_side::system.l2.cpu_side        42443                       # Packet count per connected master and slave (bytes)
system.tol2bus.pkt_count_system.cpu7.dtb_walker_cache.mem_side::system.l2.cpu_side            9                       # Packet count per connected master and slave (bytes)
system.tol2bus.pkt_count::total                632671                       # Packet count per connected master and slave (bytes)
system.tol2bus.pkt_size_system.cpu0.icache.mem_side::system.l2.cpu_side      1921920                       # Cumulative packet size per connected master and slave (bytes)
system.tol2bus.pkt_size_system.cpu0.dcache.mem_side::system.l2.cpu_side       942780                       # Cumulative packet size per connected master and slave (bytes)
system.tol2bus.pkt_size_system.cpu0.dtb_walker_cache.mem_side::system.l2.cpu_side          832                       # Cumulative packet size per connected master and slave (bytes)
system.tol2bus.pkt_size_system.cpu1.icache.mem_side::system.l2.cpu_side      1161344                       # Cumulative packet size per connected master and slave (bytes)
system.tol2bus.pkt_size_system.cpu1.dcache.mem_side::system.l2.cpu_side       763410                       # Cumulative packet size per connected master and slave (bytes)
system.tol2bus.pkt_size_system.cpu1.dtb_walker_cache.mem_side::system.l2.cpu_side          576                       # Cumulative packet size per connected master and slave (bytes)
system.tol2bus.pkt_size_system.cpu2.icache.mem_side::system.l2.cpu_side      1276544                       # Cumulative packet size per connected master and slave (bytes)
system.tol2bus.pkt_size_system.cpu2.dcache.mem_side::system.l2.cpu_side       852754                       # Cumulative packet size per connected master and slave (bytes)
system.tol2bus.pkt_size_system.cpu2.dtb_walker_cache.mem_side::system.l2.cpu_side          896                       # Cumulative packet size per connected master and slave (bytes)
system.tol2bus.pkt_size_system.cpu3.icache.mem_side::system.l2.cpu_side      1228544                       # Cumulative packet size per connected master and slave (bytes)
system.tol2bus.pkt_size_system.cpu3.dcache.mem_side::system.l2.cpu_side       856978                       # Cumulative packet size per connected master and slave (bytes)
system.tol2bus.pkt_size_system.cpu3.dtb_walker_cache.mem_side::system.l2.cpu_side          128                       # Cumulative packet size per connected master and slave (bytes)
system.tol2bus.pkt_size_system.cpu4.icache.mem_side::system.l2.cpu_side      1232000                       # Cumulative packet size per connected master and slave (bytes)
system.tol2bus.pkt_size_system.cpu4.dcache.mem_side::system.l2.cpu_side       826834                       # Cumulative packet size per connected master and slave (bytes)
system.tol2bus.pkt_size_system.cpu4.dtb_walker_cache.mem_side::system.l2.cpu_side          128                       # Cumulative packet size per connected master and slave (bytes)
system.tol2bus.pkt_size_system.cpu5.icache.mem_side::system.l2.cpu_side       969216                       # Cumulative packet size per connected master and slave (bytes)
system.tol2bus.pkt_size_system.cpu5.dcache.mem_side::system.l2.cpu_side      1416514                       # Cumulative packet size per connected master and slave (bytes)
system.tol2bus.pkt_size_system.cpu5.itb_walker_cache.mem_side::system.l2.cpu_side         1472                       # Cumulative packet size per connected master and slave (bytes)
system.tol2bus.pkt_size_system.cpu5.dtb_walker_cache.mem_side::system.l2.cpu_side        13888                       # Cumulative packet size per connected master and slave (bytes)
system.tol2bus.pkt_size_system.cpu6.icache.mem_side::system.l2.cpu_side      1255680                       # Cumulative packet size per connected master and slave (bytes)
system.tol2bus.pkt_size_system.cpu6.dcache.mem_side::system.l2.cpu_side       783277                       # Cumulative packet size per connected master and slave (bytes)
system.tol2bus.pkt_size_system.cpu6.dtb_walker_cache.mem_side::system.l2.cpu_side          384                       # Cumulative packet size per connected master and slave (bytes)
system.tol2bus.pkt_size_system.cpu7.icache.mem_side::system.l2.cpu_side      1120128                       # Cumulative packet size per connected master and slave (bytes)
system.tol2bus.pkt_size_system.cpu7.dcache.mem_side::system.l2.cpu_side       701444                       # Cumulative packet size per connected master and slave (bytes)
system.tol2bus.pkt_size_system.cpu7.dtb_walker_cache.mem_side::system.l2.cpu_side          256                       # Cumulative packet size per connected master and slave (bytes)
system.tol2bus.pkt_size::total               17327927                       # Cumulative packet size per connected master and slave (bytes)
system.tol2bus.snoops                          124648                       # Total snoops (count)
system.tol2bus.snoopTraffic                   6966144                       # Total snoop traffic (bytes)
system.tol2bus.snoop_fanout::samples           289553                       # Request fanout histogram
system.tol2bus.snoop_fanout::mean            2.679696                       # Request fanout histogram
system.tol2bus.snoop_fanout::stdev           2.791257                       # Request fanout histogram
system.tol2bus.snoop_fanout::underflows             0      0.00%      0.00% # Request fanout histogram
system.tol2bus.snoop_fanout::0                  77044     26.61%     26.61% # Request fanout histogram
system.tol2bus.snoop_fanout::1                  82244     28.40%     55.01% # Request fanout histogram
system.tol2bus.snoop_fanout::2                  29873     10.32%     65.33% # Request fanout histogram
system.tol2bus.snoop_fanout::3                   5362      1.85%     67.18% # Request fanout histogram
system.tol2bus.snoop_fanout::4                   5235      1.81%     68.99% # Request fanout histogram
system.tol2bus.snoop_fanout::5                   3486      1.20%     70.19% # Request fanout histogram
system.tol2bus.snoop_fanout::6                  25265      8.73%     78.92% # Request fanout histogram
system.tol2bus.snoop_fanout::7                  60962     21.05%     99.97% # Request fanout histogram
system.tol2bus.snoop_fanout::8                     10      0.00%     99.98% # Request fanout histogram
system.tol2bus.snoop_fanout::9                     16      0.01%     99.98% # Request fanout histogram
system.tol2bus.snoop_fanout::10                     3      0.00%     99.98% # Request fanout histogram
system.tol2bus.snoop_fanout::11                     0      0.00%     99.98% # Request fanout histogram
system.tol2bus.snoop_fanout::12                     0      0.00%     99.98% # Request fanout histogram
system.tol2bus.snoop_fanout::13                     7      0.00%     99.98% # Request fanout histogram
system.tol2bus.snoop_fanout::14                     8      0.00%     99.99% # Request fanout histogram
system.tol2bus.snoop_fanout::15                    11      0.00%     99.99% # Request fanout histogram
system.tol2bus.snoop_fanout::16                     0      0.00%     99.99% # Request fanout histogram
system.tol2bus.snoop_fanout::17                     0      0.00%     99.99% # Request fanout histogram
system.tol2bus.snoop_fanout::18                     2      0.00%     99.99% # Request fanout histogram
system.tol2bus.snoop_fanout::19                    14      0.00%    100.00% # Request fanout histogram
system.tol2bus.snoop_fanout::20                    11      0.00%    100.00% # Request fanout histogram
system.tol2bus.snoop_fanout::21                     0      0.00%    100.00% # Request fanout histogram
system.tol2bus.snoop_fanout::22                     0      0.00%    100.00% # Request fanout histogram
system.tol2bus.snoop_fanout::23                     0      0.00%    100.00% # Request fanout histogram
system.tol2bus.snoop_fanout::24                     0      0.00%    100.00% # Request fanout histogram
system.tol2bus.snoop_fanout::25                     0      0.00%    100.00% # Request fanout histogram
system.tol2bus.snoop_fanout::26                     0      0.00%    100.00% # Request fanout histogram
system.tol2bus.snoop_fanout::27                     0      0.00%    100.00% # Request fanout histogram
system.tol2bus.snoop_fanout::28                     0      0.00%    100.00% # Request fanout histogram
system.tol2bus.snoop_fanout::29                     0      0.00%    100.00% # Request fanout histogram
system.tol2bus.snoop_fanout::30                     0      0.00%    100.00% # Request fanout histogram
system.tol2bus.snoop_fanout::31                     0      0.00%    100.00% # Request fanout histogram
system.tol2bus.snoop_fanout::32                     0      0.00%    100.00% # Request fanout histogram
system.tol2bus.snoop_fanout::overflows              0      0.00%    100.00% # Request fanout histogram
system.tol2bus.snoop_fanout::min_value              0                       # Request fanout histogram
system.tol2bus.snoop_fanout::max_value             20                       # Request fanout histogram
system.tol2bus.snoop_fanout::total             289553                       # Request fanout histogram
system.tol2bus.reqLayer0.occupancy          356509000                       # Layer occupancy (ticks)
system.tol2bus.reqLayer0.utilization              0.0                       # Layer utilization (%)
system.tol2bus.snoopLayer0.occupancy            76494                       # Layer occupancy (ticks)
system.tol2bus.snoopLayer0.utilization            0.0                       # Layer utilization (%)
system.tol2bus.respLayer0.occupancy          22523995                       # Layer occupancy (ticks)
system.tol2bus.respLayer0.utilization             0.0                       # Layer utilization (%)
system.tol2bus.respLayer1.occupancy          34199500                       # Layer occupancy (ticks)
system.tol2bus.respLayer1.utilization             0.0                       # Layer utilization (%)
system.tol2bus.respLayer3.occupancy             27000                       # Layer occupancy (ticks)
system.tol2bus.respLayer3.utilization             0.0                       # Layer utilization (%)
system.tol2bus.respLayer4.occupancy          13611981                       # Layer occupancy (ticks)
system.tol2bus.respLayer4.utilization             0.0                       # Layer utilization (%)
system.tol2bus.respLayer5.occupancy          31619500                       # Layer occupancy (ticks)
system.tol2bus.respLayer5.utilization             0.0                       # Layer utilization (%)
system.tol2bus.respLayer7.occupancy             15000                       # Layer occupancy (ticks)
system.tol2bus.respLayer7.utilization             0.0                       # Layer utilization (%)
system.tol2bus.respLayer8.occupancy          14962978                       # Layer occupancy (ticks)
system.tol2bus.respLayer8.utilization             0.0                       # Layer utilization (%)
system.tol2bus.respLayer9.occupancy          35788497                       # Layer occupancy (ticks)
system.tol2bus.respLayer9.utilization             0.0                       # Layer utilization (%)
system.tol2bus.respLayer11.occupancy            24000                       # Layer occupancy (ticks)
system.tol2bus.respLayer11.utilization            0.0                       # Layer utilization (%)
system.tol2bus.respLayer12.occupancy         14400477                       # Layer occupancy (ticks)
system.tol2bus.respLayer12.utilization            0.0                       # Layer utilization (%)
system.tol2bus.respLayer13.occupancy         36170000                       # Layer occupancy (ticks)
system.tol2bus.respLayer13.utilization            0.0                       # Layer utilization (%)
system.tol2bus.respLayer15.occupancy             6000                       # Layer occupancy (ticks)
system.tol2bus.respLayer15.utilization            0.0                       # Layer utilization (%)
system.tol2bus.respLayer16.occupancy         14440976                       # Layer occupancy (ticks)
system.tol2bus.respLayer16.utilization            0.0                       # Layer utilization (%)
system.tol2bus.respLayer17.occupancy         35211497                       # Layer occupancy (ticks)
system.tol2bus.respLayer17.utilization            0.0                       # Layer utilization (%)
system.tol2bus.respLayer19.occupancy             7500                       # Layer occupancy (ticks)
system.tol2bus.respLayer19.utilization            0.0                       # Layer utilization (%)
system.tol2bus.respLayer20.occupancy         11359497                       # Layer occupancy (ticks)
system.tol2bus.respLayer20.utilization            0.0                       # Layer utilization (%)
system.tol2bus.respLayer21.occupancy         28908496                       # Layer occupancy (ticks)
system.tol2bus.respLayer21.utilization            0.0                       # Layer utilization (%)
system.tol2bus.respLayer22.occupancy            39000                       # Layer occupancy (ticks)
system.tol2bus.respLayer22.utilization            0.0                       # Layer utilization (%)
system.tol2bus.respLayer23.occupancy           459000                       # Layer occupancy (ticks)
system.tol2bus.respLayer23.utilization            0.0                       # Layer utilization (%)
system.tol2bus.respLayer24.occupancy         14718970                       # Layer occupancy (ticks)
system.tol2bus.respLayer24.utilization            0.0                       # Layer utilization (%)
system.tol2bus.respLayer25.occupancy         33459999                       # Layer occupancy (ticks)
system.tol2bus.respLayer25.utilization            0.0                       # Layer utilization (%)
system.tol2bus.respLayer27.occupancy            10500                       # Layer occupancy (ticks)
system.tol2bus.respLayer27.utilization            0.0                       # Layer utilization (%)
system.tol2bus.respLayer28.occupancy         13129974                       # Layer occupancy (ticks)
system.tol2bus.respLayer28.utilization            0.0                       # Layer utilization (%)
system.tol2bus.respLayer29.occupancy         29857999                       # Layer occupancy (ticks)
system.tol2bus.respLayer29.utilization            0.0                       # Layer utilization (%)
system.tol2bus.respLayer31.occupancy             4500                       # Layer occupancy (ticks)
system.tol2bus.respLayer31.utilization            0.0                       # Layer utilization (%)

---------- End Simulation Statistics   ----------
